24
   22   23
C    0.0000 0.0000 0.0000
C    0.7680 0.7831 -1.0545
C    1.5899 1.8861 -0.4123
C    3.8443 4.5901 -1.9463
C    3.2038 3.7480 -0.8917
C    2.3040 2.7032 -1.4650
N    -0.8139 -1.0130 -0.5980
H    -1.6673 -0.8083 -0.7962
N    4.7034 5.6128 -1.3942
H    5.5836 5.4403 -1.3235
H    0.6271 -0.4113 0.6140
H    -0.5622 0.6082 0.5060
H    1.3546 0.1826 -1.5393
H    0.1433 1.1720 -1.6862
H    1.0082 2.4634 0.1062
H    2.2402 1.4939 0.1911
H    4.3672 4.0214 -2.5337
H    3.1527 5.0116 -2.4806
H    2.6914 4.3189 -0.2990
H    3.8971 3.3166 -0.3662
H    2.8274 2.1063 -2.0223
H    1.6433 3.1320 -2.0294
X    -0.6385 -1.6374 -0.7208
X    4.5311 6.2175 -1.2067
   0    1 S
   0    6 S
   0   10 S
   0   11 S
   1    2 S
   1   12 S
   1   13 S
   2    5 S
   2   14 S
   2   15 S
   3    4 S
   3    8 S
   3   16 S
   3   17 S
   4    5 S
   4   18 S
   4   19 S
   5   20 S
   5   21 S
   6    7 S
   6   22 S
   8    9 S
   8   23 S
