34
   32   33
N    0.0000 0.0000 0.0000
N    6.1844 0.5190 0.5190
H    -2.3811 -2.1141 -0.1481
H    -0.5274 -1.5334 1.1154
H    0.2445 1.3945 -1.3657
H    -1.6205 0.9096 -2.5924
H    1.2926 1.3382 0.8100
H    1.1494 0.0341 1.6724
H    2.4454 -0.0105 -0.8375
H    2.4826 -1.1573 0.2333
H    8.5656 0.6671 2.6331
H    6.7118 -0.5963 2.0525
H    5.9399 1.8847 -0.8755
H    7.8049 3.1115 -0.3906
H    4.8919 -0.2910 -0.8191
H    5.0350 -1.1534 0.4849
H    3.7391 1.3565 0.5295
H    3.7019 0.2857 1.6763
C    -2.2087 -0.6619 -1.4915
C    -1.8650 -1.3814 -0.3971
C    -0.7494 -1.0380 0.3604
C    -0.3065 0.6933 -1.1009
C    -1.4098 0.3958 -1.8454
C    1.2216 0.3722 0.7654
C    2.4668 -0.1953 0.1140
C    8.3932 2.0105 1.1809
C    8.0494 0.9161 1.9004
C    6.9338 0.1586 1.5570
C    6.4909 1.6200 -0.1743
C    7.5942 2.3644 0.1232
C    4.9629 -0.2464 0.1468
C    3.7176 0.4050 0.7143
X    -2.8263 -0.8375 -1.9109
X    9.0107 2.4299 1.3565
   0   20 A
   0   21 A
   0   23 S
   1   27 A
   1   28 A
   1   30 S
   2   19 S
   3   20 S
   4   21 S
   5   22 S
   6   23 S
   7   23 S
   8   24 S
   9   24 S
  10   26 S
  11   27 S
  12   28 S
  13   29 S
  14   30 S
  15   30 S
  16   31 S
  17   31 S
  18   19 A
  18   22 A
  18   32 S
  19   20 A
  21   22 A
  23   24 S
  24   31 S
  25   26 A
  25   29 A
  25   33 S
  26   27 A
  28   29 A
  30   31 S
  32   18 S
  33   25 S
