21
   19   20
C    0.0000 0.0000 0.0000
C    -0.7432 -1.3525 2.0045
C    1.4369 -0.1894 2.1259
C    -0.0552 -2.9008 -0.2190
H    2.8582 -1.2587 -0.3324
H    1.9707 -1.8828 -1.4690
H    1.1165 0.1047 -1.8632
H    1.9441 0.7153 -0.6629
H    -0.7523 -0.3992 -0.4837
H    -0.8457 -2.3039 1.9348
H    -1.5456 -0.9214 1.6979
H    -0.5840 -1.1150 2.9201
H    0.2395 -3.1929 -1.0848
H    -0.8191 -2.3281 -0.3165
H    -0.2923 -3.6639 0.3125
C    0.4402 -0.9011 1.1446
C    1.0647 -2.1394 0.4648
C    1.9478 -1.3635 -0.6499
C    1.3394 0.0026 -0.9236
X    -0.4200 0.5657 0.2219
X    1.5873 -2.4426 0.8973
   0    8 S
   0   15 S
   0   18 S
   0   19 S
   1    9 S
   1   10 S
   1   11 S
   1   15 S
   2   15 S
   3   12 S
   3   13 S
   3   14 S
   3   16 S
   4   17 S
   5   17 S
   6   18 S
   7   18 S
  15   16 S
  16   17 S
  16   20 S
  17   18 S
