30
   28   29
H    0.0000 0.0000 0.0000
H    -2.1489 0.1705 0.3333
H    -2.7726 1.5571 0.7140
H    2.4206 2.7691 -1.4235
H    1.9644 4.8759 -1.7568
H    0.5068 5.3087 -2.1375
H    3.8962 1.4791 -1.4235
H    6.0451 1.3087 -1.7568
H    6.6689 -0.0780 -2.1375
H    1.4756 -1.2899 0.0000
H    1.9318 -3.3967 0.3333
H    3.3894 -3.8295 0.7140
C    -0.9090 1.7772 -0.2666
C    0.1483 0.8728 -0.2870
C    -2.3045 1.0678 0.0339
C    0.5378 3.4324 -1.1569
C    1.5755 2.5054 -1.1366
C    1.0544 4.9102 -1.4574
C    4.8053 -0.2981 -1.1569
C    3.7479 0.6064 -1.1366
C    6.2008 0.4114 -1.4574
C    3.3584 -1.9532 -0.2666
C    2.3207 -1.0263 -0.2870
C    2.8419 -3.4310 0.0339
C    -0.7276 3.0786 -0.7118
C    1.3948 1.2233 -0.7118
C    4.6238 -1.5994 -0.7118
C    2.5015 0.2559 -0.7118
X    -1.2227 3.6355 -0.7266
X    5.1189 -2.1563 -0.6970
   0   13 S
   1   14 S
   2   14 S
   3   16 S
   4   17 S
   5   17 S
   6   19 S
   7   20 S
   8   20 S
   9   22 S
  10   23 S
  11   23 S
  12   13 A
  12   14 A
  12   24 A
  13   25 A
  15   16 A
  15   17 A
  15   24 A
  16   25 A
  18   19 A
  18   20 A
  18   26 A
  19   27 A
  21   22 A
  21   23 A
  21   26 A
  22   27 A
  24   28 S
  25   27 S
  26   29 S
