9
    7    8
C    0.0000 0.0000 0.0000
C    0.9052 -1.2459 0.0000
C    2.3698 -0.7700 0.0000
C    2.3698 0.7700 0.0000
O    0.9052 1.2459 0.0000
H    0.6682 -2.3610 0.0000
H    3.2170 -1.5328 0.0000
X    -0.7500 0.0000 0.0000
X    2.9766 1.2108 0.0000
   0    1 A
   0    4 A
   1    2 A
   1    5 S
   2    3 A
   2    6 S
   3    4 A
   7    0 S
   8    3 S
