18
   16   17
H    0.0000 0.0000 0.0000
H    -0.3921 -1.6645 -1.6886
H    0.8285 -2.2208 -2.5052
C    1.1708 1.7670 1.5668
C    1.7573 0.6735 0.7121
C    3.1188 0.4540 0.6515
C    3.6260 -0.5578 -0.1476
C    2.7699 -1.3636 -0.8951
C    1.4126 -1.1647 -0.8404
C    0.9184 -0.1419 -0.0367
C    0.4796 -2.0825 -1.6099
H    1.8844 2.3666 1.8362
H    0.5446 2.2791 1.0312
H    3.6979 0.9870 1.1488
H    4.5448 -0.6994 -0.1869
H    3.1193 -2.0385 -1.4302
X    0.8864 1.3446 2.0787
X    0.7258 -2.6697 -1.3087
   0    9 S
   1   10 S
   2   10 S
   3    4 S
   3   11 S
   3   12 S
   3   16 S
   4    5 A
   4    9 A
   5    6 A
   5   13 S
   6    7 A
   6   14 S
   7    8 A
   7   15 S
   8    9 A
   8   10 S
  10   17 S
