20
   18   19
H    0.0000 0.0000 0.0000
N    -3.3271 0.5400 -2.0703
C    -1.6083 0.7170 2.6822
C    -1.9190 0.5591 -0.0481
N    -0.9777 0.3085 -2.3349
C    -0.5717 0.3929 1.8989
C    -2.8105 0.9856 2.0928
H    0.2708 0.2414 2.2853
H    -3.5635 1.1917 2.6160
H    -4.3134 0.4476 -3.8083
C    -3.4544 0.4285 -3.4279
H    -3.7086 1.2220 0.3729
C    -2.0764 0.4599 -1.5200
C    -2.8986 0.9517 0.7638
C    -0.7241 0.2760 0.5307
C    -1.0969 0.2418 -3.6579
C    -2.3889 0.2931 -4.2293
H    -0.3361 0.1623 -4.2037
X    -1.6006 0.7273 3.4278
X    -2.3986 0.2638 -4.9825
   0   14 S
   1   10 A
   1   12 A
   2    5 A
   2    6 A
   2   18 S
   3   12 S
   3   13 A
   3   14 A
   4   12 A
   4   15 A
   5    7 S
   5   14 A
   6    8 S
   6   13 A
   9   10 S
  10   16 A
  11   13 S
  15   16 A
  15   17 S
  16   19 S
