22
   20   21
H    0.0000 0.0000 0.0000
H    -0.1097 1.7063 -1.5329
C    0.2802 1.1443 1.6252
H    0.5239 2.6678 2.9214
H    0.0168 6.2315 -0.7967
C    0.3373 0.0278 2.6497
H    0.3975 -1.8575 2.1852
C    0.0861 0.8806 0.2861
C    0.3967 2.4679 2.0219
H    0.4143 4.3741 1.3885
C    0.1340 3.2298 -0.2367
C    0.0769 4.3463 -1.2613
N    -0.4447 5.5903 -0.7709
C    0.3282 3.4934 1.1024
N    0.8590 -1.2162 2.1593
C    0.0175 1.9061 -0.6334
H    0.9724 4.5007 -1.6005
H    -0.4721 4.0548 -2.0058
H    -0.5582 -0.1266 2.9889
H    0.8864 0.3193 3.3943
X    -1.0905 5.7119 -0.6295
X    1.5047 -1.3378 2.0179
   0    7 S
   1   15 S
   2    5 S
   2    7 A
   2    8 A
   3    8 S
   4   12 S
   5   14 S
   5   18 S
   5   19 S
   6   14 S
   7   15 A
   8   13 A
   9   13 S
  10   11 S
  10   13 A
  10   15 A
  11   12 S
  11   16 S
  11   17 S
  12   20 S
  14   21 S
