18
   16   17
C    0.0000 0.0000 0.0000
C    0.5564 1.0432 0.9545
C    1.7246 0.4759 1.7639
C    1.3178 -0.7883 2.5043
C    0.7183 -1.8237 1.5951
C    -0.4215 -1.2474 0.7458
H    0.7479 -0.2684 -0.5680
H    0.8576 1.8146 0.4500
H    -0.1447 1.3342 1.5588
H    2.0258 1.1402 2.4045
H    2.4628 0.2774 1.1687
H    0.6098 -0.5278 3.1340
H    1.4086 -2.1722 1.0108
H    0.3796 -2.5590 2.1286
H    -1.1727 -1.0365 1.3211
H    -0.7132 -1.9173 0.1071
X    -0.4407 0.4412 -0.4709
X    1.8151 -1.2295 2.9253
   0    1 S
   0    5 S
   0    6 S
   0   16 S
   1    2 S
   1    7 S
   1    8 S
   2    3 S
   2    9 S
   2   10 S
   3    4 S
   3   11 S
   3   17 S
   4    5 S
   4   12 S
   4   13 S
   5   14 S
   5   15 S
