20
   18   19
O    0.0000 0.0000 0.0000
C    -0.6454 -2.6675 0.0218
C    0.5965 -0.7449 0.7836
C    0.9798 -2.9345 1.8312
O    2.6583 -3.0869 3.4676
H    -1.1287 -3.3719 0.5213
H    -1.3099 -1.9940 -0.2703
H    1.3727 -3.6760 1.3050
H    0.2954 -3.3269 2.4280
C    3.3037 -0.4194 3.4458
C    2.0618 -2.3419 2.6840
C    1.6785 -0.1524 1.6364
N    0.3115 -2.0315 0.9083
N    2.3468 -1.0554 2.5593
H    3.7870 0.2851 2.9463
H    3.9682 -1.0929 3.7379
H    1.2856 0.5891 2.1626
H    2.3629 0.2400 1.0396
X    -0.2303 -2.8125 -0.4844
X    2.8886 -0.2744 3.9520
   0    2 D
   1    5 S
   1    6 S
   1   12 S
   1   18 S
   2   11 S
   2   12 S
   3    7 S
   3    8 S
   3   10 S
   3   12 S
   4   10 D
   6    1 S
   9   13 S
   9   14 S
   9   15 S
   9   19 S
  10   13 S
  11   13 S
  11   16 S
  11   17 S
  15    9 S
