22
   20   21
H    0.0000 0.0000 0.0000
H    -1.4995 -0.2947 -0.4647
H    0.6126 -2.1746 -0.4858
H    -0.8976 -2.5384 -0.8634
I    -3.6554 -3.8918 3.4406
I    -0.1063 0.6462 5.2447
O    -2.2362 -1.7411 5.3585
C    -1.7961 -1.5770 4.0664
C    -2.3244 -2.3369 3.0240
C    -1.9774 -2.0797 1.6996
C    -1.0701 -1.0617 1.3862
C    -0.5147 -0.3359 2.4291
C    -0.8879 -0.5877 3.7371
C    -1.4772 -2.6794 6.1406
C    -0.7047 -0.6948 -0.0290
C    -0.2229 -1.8148 -0.8766
H    -2.3603 -2.5989 1.0033
H    0.1260 0.3400 2.2443
H    -1.3948 -3.5350 5.6503
H    -0.5661 -2.3242 6.2998
X    -1.8242 -2.7812 6.8081
X    -0.0926 -1.6321 -1.6000
   0   14 S
   1   14 S
   2   15 S
   3   15 S
   4    8 S
   5   12 S
   6    7 S
   6   13 S
   7    8 A
   7   12 A
   8    9 A
   9   10 A
   9   16 S
  10   11 A
  10   14 S
  11   12 A
  11   17 S
  13   18 S
  13   19 S
  13   20 S
  14   15 S
  15   21 S
