10
    8    9
H    0.0000 0.0000 0.0000
H    0.4586 -0.8998 -1.0461
N    -0.1893 -0.3410 -0.7996
C    -2.0371 -1.3894 0.3886
C    -2.1506 -1.4021 -1.7791
N    -1.3835 -1.0229 -0.7365
N    -3.1577 -1.9780 0.0574
N    -3.2027 -2.0151 -1.3436
X    -1.8421 -1.3044 1.0937
X    -2.0357 -1.3124 -2.4994
   0    2 S
   1    2 S
   2    5 S
   3    5 A
   3    6 A
   3    8 S
   4    5 A
   4    7 A
   4    9 S
   6    7 A
