30
   28   29
H    0.0000 0.0000 0.0000
H    -3.9032 -0.4946 -0.6978
H    0.5801 -3.1859 1.6323
H    0.8218 -0.4081 2.1881
C    -4.3329 -2.9266 0.3464
H    2.1550 -1.2724 2.3800
H    0.8435 -1.6253 3.2248
H    1.4459 -3.1715 -0.4710
H    2.5948 -2.5545 0.4561
H    1.6870 -1.5893 -0.4436
C    -5.1138 -2.9506 -0.9694
C    -5.2109 -2.4032 1.4928
H    -4.0636 -3.8653 0.5632
H    -5.6015 -2.1079 -1.0741
H    -5.7489 -3.6972 -0.9595
H    -4.4903 -3.0610 -1.7171
H    -5.5364 -1.5077 1.2710
H    -4.6830 -2.3648 2.3176
H    -5.9736 -3.0058 1.6199
C    -1.8500 -2.5304 0.7451
C    -0.6912 -1.7838 0.6604
C    -0.7781 -0.5402 0.0698
C    -1.9619 -0.0768 -0.4112
C    -3.0923 -0.8379 -0.3414
C    -3.0914 -2.1007 0.2367
C    0.7100 -2.2808 1.2311
C    1.1761 -1.3060 2.3625
C    1.6964 -2.4104 0.0922
X    -1.7928 -3.1691 1.0846
X    -1.9960 0.6362 -0.7102
   0   21 S
   1   23 S
   2   25 S
   3   26 S
   4   10 S
   4   11 S
   4   12 S
   4   24 S
   5   26 S
   6   26 S
   7   27 S
   8   27 S
   9   27 S
  10   13 S
  10   14 S
  10   15 S
  11   16 S
  11   17 S
  11   18 S
  19   20 A
  19   24 A
  19   28 S
  20   21 A
  20   25 S
  21   22 A
  22   23 A
  22   29 S
  23   24 A
  25   26 S
  25   27 S
