16
   14   15
O    0.0000 0.0000 0.0000
O    0.9793 0.2306 -1.9955
H    -3.3638 -3.1822 -1.7009
H    -1.2159 0.5568 -3.3899
C    -1.6504 -0.1939 -3.0545
C    -2.8039 -0.6541 -3.6981
C    -3.4448 -1.8055 -3.1600
O    -4.5797 -2.6254 -5.0908
C    -4.5797 -2.4377 -3.8700
O    -5.5591 -2.8560 -3.0953
C    -2.9294 -2.4315 -2.0363
C    -1.7758 -1.9712 -1.3927
C    -1.1349 -0.8199 -1.9308
C    0.0000 -0.1877 -1.2208
X    -3.0756 -0.3169 -4.3454
X    -1.5041 -2.3085 -0.7454
   0   13 A
   1   13 A
   2   10 S
   3    4 S
   4    5 A
   4   12 A
   5    6 A
   5   14 S
   6    8 S
   6   10 A
   7    8 A
   8    9 A
  10   11 A
  11   12 A
  11   15 S
  12   13 S
