9
    7    8
O    0.0000 0.0000 0.0000
O    1.7532 -0.0628 -1.3600
Mn   -0.7883 1.9921 -0.4638
O    -1.6708 3.9183 -0.8301
C    -2.7858 4.4387 -0.6126
O    -3.6334 4.0030 0.2197
C    1.0635 -0.5114 -0.4016
X    -2.6836 5.0190 -1.0122
X    1.0440 -1.1295 -0.0653
   0    2 S
   0    6 S
   1    6 D
   2    3 S
   3    4 S
   4    5 D
   4    7 S
   6    8 S
