16
   14   15
C    0.0000 0.0000 0.0000
C    1.5340 0.0983 -0.0940
C    1.6293 -1.4380 -0.1441
C    0.0953 -1.5362 -0.0500
C    1.7263 -1.4821 1.3922
C    1.6311 0.0541 1.4423
C    0.0971 -0.0440 1.5363
C    0.1923 -1.5803 1.4863
H    -0.7378 0.6334 -0.5949
H    2.1074 0.8157 -0.7693
H    -0.5610 -2.2160 -0.6878
H    2.4641 -2.1156 1.9871
H    2.2875 0.7337 2.0802
H    -0.3811 -2.2976 2.1617
X    2.0601 -1.8299 -0.6166
X    -0.3337 0.3480 2.0088
   0    1 S
   0    3 S
   0    6 S
   0    8 S
   1    2 S
   1    5 S
   1    9 S
   2    3 S
   2    4 S
   3    7 S
   3   10 S
   4    7 S
   4    5 S
   4   11 S
   5    6 S
   5   12 S
   6    7 S
   7   13 S
  14    2 S
  15    6 S
