16
   14   15
C    0.0000 0.0000 0.0000
C    0.4684 1.7214 1.5601
C    1.3906 2.2925 0.6862
C    0.1700 2.3597 2.7514
C    1.9910 3.5054 1.0152
C    0.7690 3.5818 3.0721
H    0.9343 -0.2383 -0.1047
H    -0.2083 0.6828 -0.6580
H    1.6036 1.8673 -0.1113
H    -0.4339 1.9722 3.3429
C    1.6665 4.1449 2.1766
O    -0.1953 0.5369 1.3013
H    2.6162 3.8827 0.4386
H    0.5690 4.0104 3.8730
X    -0.6416 -0.3223 -0.1346
X    2.1828 4.5361 2.2905
   0    6 S
   0    7 S
   0   11 S
   0   14 S
   1    2 A
   1    3 A
   1   11 S
   2    4 A
   2    8 S
   3    5 A
   3    9 S
   4   10 A
   4   12 S
   5   10 A
   5   13 S
  10   15 S
