23
   21   22
Ni   0.0000 0.0000 0.0000
C    -1.6484 2.4925 3.8700
C    -2.5104 2.0640 2.8838
C    -2.0232 1.3760 1.7824
C    0.1010 1.4867 2.5898
C    -0.3111 2.1910 3.7070
H    -0.3097 -2.4601 -4.3454
H    3.4213 -2.2362 -2.9563
H    2.6200 -1.1117 -1.1194
H    -1.0056 -1.2888 -2.5012
N    0.7288 -1.0791 -1.6365
N    -0.7288 1.0791 1.6365
H    -3.4213 2.2362 2.9563
H    -2.6200 1.1117 1.1194
H    1.0056 1.2888 2.5012
H    0.3097 2.4601 4.3454
C    1.6484 -2.4925 -3.8700
C    2.5104 -2.0640 -2.8838
C    2.0232 -1.3760 -1.7824
C    -0.1010 -1.4867 -2.5898
C    0.3111 -2.1910 -3.7070
X    -1.6518 2.9278 4.4077
X    1.6518 -2.9278 -4.4077
   0   10 S
   0   11 S
   1    2 A
   1    5 A
   1   21 S
   2    3 A
   2   12 S
   3   11 A
   3   13 S
   4    5 A
   4   11 A
   4   14 S
   5   15 S
   6   20 S
   7   17 S
   8   18 S
   9   19 S
  10   18 A
  10   19 A
  16   17 A
  16   20 A
  16   22 S
  17   18 A
  19   20 A
