37
   35   36
C    0.0000 0.0000 0.0000
C    0.2832 0.9181 8.9287
C    -0.6848 0.9976 -0.5859
C    0.7113 -0.3155 9.2138
C    -0.1162 2.4741 1.1681
C    -0.7425 2.2174 -0.0006
C    0.9725 0.9712 4.3073
C    1.8266 -0.4758 7.1231
C    1.4637 -1.0163 8.3384
C    0.6476 0.2121 1.1813
C    -1.3035 0.8008 -1.8837
C    0.6043 1.5043 7.7153
C    1.7954 1.4881 5.4886
C    0.4282 -0.9298 10.5191
C    1.3840 1.7455 3.0599
N    0.6339 1.4590 1.8163
N    1.3733 0.8547 6.7965
H    0.0319 -0.8378 -0.4047
H    -0.2308 1.3850 9.5455
H    -0.1769 3.3195 1.5526
H    -1.2253 2.8954 -0.4173
H    0.0266 1.0986 4.4792
H    1.1350 0.0234 4.1771
H    2.3519 -0.9587 6.5246
H    1.7408 -1.8757 8.5574
H    1.1107 -0.4918 1.5778
H    -1.6110 -0.1179 -1.9466
H    -2.0824 1.3757 -1.9466
H    0.2885 2.3578 7.5253
H    1.6922 2.4508 5.5554
H    2.7338 1.2995 5.3288
H    -0.2703 -0.4267 10.9679
H    0.1055 -1.8348 10.3825
H    2.3231 1.5692 2.8932
H    1.2989 2.6927 3.2519
X    -0.8316 1.1812 -2.2383
X    1.0040 -0.6580 11.2485
   0    2 A
   0    9 A
   0   17 S
   1    3 A
   1   11 A
   1   18 S
   2    5 A
   2   10 S
   3    8 A
   3   13 S
   4    5 A
   4   15 A
   4   19 S
   5   20 S
   6   12 S
   6   14 S
   6   21 S
   6   22 S
   7    8 A
   7   16 A
   7   23 S
   8   24 S
   9   15 A
   9   25 S
  10   26 S
  10   27 S
  10   35 S
  11   16 A
  11   28 S
  12   16 S
  12   29 S
  12   30 S
  13   31 S
  13   32 S
  13   36 S
  14   15 S
  14   33 S
  14   34 S
