26
   24   25
C    0.0000 0.0000 0.0000
C    0.7274 -1.3362 0.2394
C    2.2620 -1.3662 0.3598
C    3.0684 -0.0592 0.2468
C    2.3408 1.2772 0.0098
C    0.8064 1.3066 -0.1150
C    2.9900 -2.7038 0.5888
C    4.5262 -2.7370 0.6940
C    5.2544 -4.0804 0.8858
C    6.7914 -4.1186 0.9730
C    7.5194 -5.4638 1.1532
C    6.7104 -6.7706 1.2506
C    5.1732 -6.7314 1.1702
C    4.4454 -5.3866 0.9884
H    -1.1362 0.0218 -0.0918
H    0.1298 -2.3030 0.3272
H    4.2046 -0.0808 0.3386
H    2.9382 2.2446 -0.0730
H    2.3918 -3.6698 0.6804
H    5.1230 -1.7678 0.6298
H    7.3904 -3.1510 0.9044
H    8.6574 -5.4924 1.2144
H    4.5736 -7.6980 1.2454
H    3.3072 -5.3576 0.9298
X    0.4519 1.9571 -0.2318
X    7.0649 -7.4258 1.3372
   0    1 A
   0    5 A
   0   14 S
   1    2 A
   1   15 S
   2    3 A
   2    6 S
   3    4 A
   3   16 S
   4    5 A
   4   17 S
   6    7 D
   6   18 S
   7    8 S
   7   19 S
   8    9 A
   8   13 A
   9   10 A
   9   20 S
  10   11 A
  10   21 S
  11   12 A
  12   13 A
  12   22 S
  13   23 S
  24    5 S
  25   11 S
