14
   12   13
H    0.0000 0.0000 0.0000
C    -0.4517 1.7734 -2.5650
H    -2.1592 -0.2613 -0.8108
C    -3.0287 1.0276 -2.1449
H    -1.3258 3.0470 -3.8476
H    0.4250 1.9911 -2.7825
H    -3.8958 0.7131 -2.0270
C    -0.7129 0.8654 -1.6031
C    -1.9824 0.4257 -1.4115
N    0.2773 0.2634 -0.7706
C    -2.8187 2.0421 -3.0077
C    -1.5134 2.3807 -3.2284
X    0.8755 -0.1414 -0.8948
X    -3.2060 2.5693 -3.3791
   0    9 S
   1    5 S
   1    7 A
   1   11 A
   2    8 S
   3    6 S
   3    8 A
   3   10 A
   4   11 S
   7    8 A
   7    9 S
   9   12 S
  10   11 A
  10   13 S
