23
   21   22
H    0.0000 0.0000 0.0000
H    0.0000 0.3549 -7.5128
H    0.0000 -1.8897 -6.4070
H    0.0000 0.2248 -5.0280
H    0.0000 -2.0407 -3.8529
H    0.0000 0.0919 -2.5016
H    0.0000 -2.1219 -1.3086
H    -1.7943 0.0000 0.0000
H    -1.7943 0.3549 -7.5128
H    -1.7943 -1.8897 -6.4070
H    -1.7943 0.2248 -5.0280
H    -1.7943 -2.0407 -3.8529
H    -1.7943 0.0919 -2.5016
H    -1.7943 -2.1219 -1.3086
C    -0.8971 -0.6349 -0.0056
C    -0.8971 -0.2773 -7.5684
C    -0.8971 -1.2551 -6.3727
C    -0.8971 -0.4092 -5.0624
C    -0.8971 -1.4060 -3.8247
C    -0.8971 -0.5425 -2.5228
C    -0.8971 -1.4876 -1.2879
X    -0.8971 -1.0579 0.6077
X    -0.8971 -0.6485 -8.2361
   0   14 S
   1   15 S
   2   16 S
   3   17 S
   4   18 S
   5   19 S
   6   20 S
   7   14 S
   8   15 S
   9   16 S
  10   17 S
  11   18 S
  12   19 S
  13   20 S
  14   20 S
  14   21 S
  15   16 S
  15   22 S
  16   17 S
  17   18 S
  18   19 S
  19   20 S
