32
   30   31
C    0.0000 0.0000 0.0000
C    -1.5140 -0.7607 1.9202
C    -0.1517 -0.1938 1.5078
C    0.0567 1.1864 2.1686
C    -0.0396 1.0995 3.7137
C    -1.4507 0.5217 4.0739
C    -1.5787 -0.8531 3.4430
C    -0.5843 -1.7841 3.9348
C    1.0432 0.1250 4.1609
C    0.8203 -1.2715 3.5746
C    0.9087 -1.1628 2.0693
C    0.2268 2.4434 4.3472
H    0.8441 0.4474 -0.1714
H    -0.7095 0.5850 -0.3105
H    -1.6341 -1.6410 1.5302
H    -2.2236 -0.1848 1.5948
H    0.9285 1.5305 1.9202
H    -0.6146 1.8040 1.8407
H    -2.1458 1.1067 3.7386
H    -1.5457 0.4546 5.0378
H    -2.4610 -1.2081 3.6814
H    -0.6634 -1.8711 4.8986
H    -0.7267 -2.6572 3.5398
H    1.9110 0.4564 3.8802
H    1.0445 0.0688 5.1297
H    1.5022 -1.8910 3.9100
H    1.7923 -0.8513 1.8208
H    0.7808 -2.0413 1.6768
H    0.0989 2.3764 5.3060
H    1.1487 2.6970 4.1857
X    -0.0204 -0.6367 -0.4024
X    -0.2460 2.9923 4.0615
   0    2 S
   0   12 S
   0   13 S
   0   30 S
   1    2 S
   1    6 S
   1   14 S
   1   15 S
   2    3 S
   2   10 S
   3    4 S
   3   16 S
   3   17 S
   4    5 S
   4    8 S
   4   11 S
   5    6 S
   5   18 S
   5   19 S
   6    7 S
   6   20 S
   7    9 S
   7   21 S
   7   22 S
   8    9 S
   8   23 S
   8   24 S
   9   10 S
   9   25 S
  10   26 S
  10   27 S
  11   28 S
  11   29 S
  11   31 S
