15
   13   14
C    0.0000 0.0000 0.0000
C    1.5926 -0.1046 1.8445
C    0.7045 -0.9639 2.5227
H    1.7342 0.9358 0.1284
H    0.9247 -1.2563 3.3767
H    -1.6432 -1.2023 0.2931
H    2.9591 -0.0540 3.3213
H    3.5910 0.1282 1.8983
H    2.8196 1.3148 2.5718
C    -0.4624 -1.3778 1.9823
C    -0.8513 -0.9133 0.6830
C    2.8475 0.3588 2.4624
C    1.1742 0.3532 0.5879
X    -0.2128 0.2705 -0.6647
X    -0.9467 -1.8698 2.3111
   0   10 A
   0   12 A
   0   13 S
   1    2 A
   1   11 S
   1   12 A
   2    4 S
   2    9 A
   3   12 S
   5   10 S
   6   11 S
   7   11 S
   8   11 S
   9   10 A
   9   14 S
