28
   26   27
C    0.0000 0.0000 0.0000
C    -0.7867 -1.0823 0.2644
C    -1.2567 -1.8685 -0.7752
C    -0.9679 -1.5486 -2.0483
C    -0.1790 -0.4669 -2.3281
C    0.3045 0.2943 -1.2834
C    -2.1214 -3.3756 -2.9852
H    -4.2357 -5.4563 -8.4731
H    -3.1410 -4.3851 -6.7405
H    -4.9890 -6.7209 -4.1223
H    -6.0157 -7.8348 -5.8652
H    -2.1660 -3.5353 -5.1516
O    -3.3916 -4.8423 -4.1952
O    -1.3927 -2.2624 -3.1356
C    -5.2344 -6.7560 -7.3309
C    -4.3829 -5.7238 -7.5953
C    -3.7390 -5.0724 -6.5557
C    -3.9766 -5.4319 -5.2825
C    -4.8270 -6.4660 -5.0028
C    -5.4434 -7.1243 -6.0475
C    -2.4957 -3.8586 -4.3457
H    -1.7728 -2.6192 -0.5904
H    0.0274 -0.2464 -3.2085
H    -1.0090 -1.2917 1.1422
H    -2.3522 -3.7756 -2.1792
H    0.8495 1.0260 -1.4657
X    0.4673 0.4587 0.1671
X    -5.8286 -7.0600 -7.5098
   0    1 A
   0    5 A
   0   26 S
   1    2 A
   1   23 S
   2    3 A
   2   21 S
   3    4 A
   3   13 S
   4    5 A
   4   22 S
   5   25 S
   6   13 S
   6   20 D
   6   24 S
   7   15 S
   8   16 S
   9   18 S
  10   19 S
  11   20 S
  12   17 S
  12   20 S
  14   15 A
  14   19 A
  14   27 S
  15   16 A
  16   17 A
  17   18 A
  18   19 A
