12
   10   11
C    0.0000 0.0000 0.0000
C    0.3826 1.3283 -0.0195
C    0.9719 1.9147 1.0615
C    1.1185 1.1262 2.1853
C    0.7171 -0.1850 2.2107
C    0.1497 -0.7714 1.1083
F    -0.5160 -0.5378 -1.1180
F    0.2350 2.0091 -1.1532
F    1.6534 1.6458 3.3034
F    0.8763 -0.9011 3.3424
X    1.3634 2.5359 1.0361
X    -0.2199 -1.4168 1.1210
   0    1 A
   0    5 A
   0    6 S
   1    2 A
   1    7 S
   2    3 A
   2   10 S
   3    4 A
   3    8 S
   4    5 A
   4    9 S
   5   11 S
