18
   16   17
F    0.0000 0.0000 0.0000
F    -2.1487 1.3920 0.7259
F    -4.3868 -2.6112 1.7909
F    -2.2381 -4.0032 1.0650
C    0.1552 -2.8315 0.0261
C    -1.0507 -2.0536 0.4901
C    -1.0785 -0.6703 0.4460
C    -2.1911 0.0464 0.8264
C    -4.5420 0.2203 1.7649
C    -3.3361 -0.5576 1.3009
H    0.5539 -2.3492 -0.6698
C    -2.1956 -2.6576 0.9645
H    -4.9407 -0.2620 2.4607
H    -4.2063 1.0572 2.0709
C    -3.3083 -1.9409 1.3450
H    -0.1805 -3.6684 -0.2799
X    0.9006 -2.7311 0.1706
X    -5.2874 0.1199 1.6204
   0    6 S
   1    7 S
   2   14 S
   3   11 S
   4    5 S
   4   10 S
   4   15 S
   4   16 S
   5    6 A
   5   11 A
   6    7 A
   7    9 A
   8    9 S
   8   12 S
   8   13 S
   8   17 S
   9   14 A
  11   14 A
