22
   20   21
C    0.0000 0.0000 0.0000
C    -0.9691 -0.1443 1.1198
H    -3.3536 1.3712 2.6120
H    -1.8155 -2.1624 3.4730
H    0.0334 -3.1251 2.0365
H    1.5112 -2.7991 0.3435
H    2.3496 -1.4769 -1.5837
H    0.8361 2.1109 -2.2395
N    -1.8592 0.8505 1.3250
N    -0.0879 1.2256 -0.7116
C    -2.7314 0.7088 2.4157
C    -2.6525 -0.4420 3.2054
C    -1.8182 -1.4047 2.9332
C    -0.9390 -1.3338 1.8737
C    0.0072 -2.3338 1.5480
C    0.8784 -2.1418 0.5220
C    0.8577 -0.9910 -0.2721
C    1.7509 -0.8042 -1.3517
C    1.7320 0.3544 -2.0432
C    0.8305 1.3312 -1.7332
X    -3.1662 -0.3723 3.7340
X    2.1599 0.3767 -2.5864
   0    1 A
   0    9 A
   0   16 A
   1    8 A
   1   13 A
   2   10 S
   3   12 S
   4   14 S
   5   15 S
   6   17 S
   7   19 S
   8   10 A
   9   19 A
  10   11 A
  11   12 A
  11   20 S
  12   13 A
  13   14 A
  14   15 A
  15   16 A
  16   17 A
  17   18 A
  18   19 A
  18   21 S
