8
    6    7
N    0.0000 0.0000 0.0000
N    0.9052 -1.2459 0.0000
C    2.3698 -0.7700 0.0000
C    2.3698 0.7700 0.0000
N    0.9052 1.2458 0.0000
H    3.3571 1.3400 0.0000
X    2.9766 -1.2108 0.0000
X    0.6734 1.9591 0.0000
   0    1 A
   0    4 A
   1    2 A
   2    3 A
   3    4 A
   3    5 S
   6    2 S
   7    4 S
