20
   18   19
C    0.0000 0.0000 0.0000
C    1.5000 0.3330 -0.0310
C    1.7114 -1.1768 -0.2688
C    0.2046 -1.5058 -0.2298
C    0.2208 -0.3166 1.4940
C    0.4310 -1.8264 1.2562
C    1.7278 0.0120 1.4548
C    1.9314 -1.4940 1.2248
C    2.6450 -1.7072 -1.3730
C    3.5790 -2.2358 -2.4776
C    -0.7090 0.2288 2.5940
C    -1.6382 0.7758 3.6936
H    -0.9212 0.6606 -0.1206
H    2.1240 0.9290 -0.7760
H    -0.0642 -2.1778 -1.1108
H    -0.1926 -2.4220 2.0020
H    1.9968 0.6808 2.3380
H    2.8510 -2.1572 1.3440
X    4.0338 -2.4932 -3.0155
X    -2.0907 1.0422 4.2291
   0    1 S
   0    3 S
   0    4 S
   0   12 S
   1    2 S
   1    6 S
   1   13 S
   2    3 S
   2    7 S
   2    8 S
   3    5 S
   3   14 S
   4    5 S
   4    6 S
   4   10 S
   5    7 S
   5   15 S
   6    7 S
   6   16 S
   7   17 S
   8    9 T
  10   11 T
  18    9 S
  19   11 S
