15
   13   14
H    0.0000 0.0000 0.0000
C    -3.8664 1.4747 3.5275
C    -3.0893 2.4663 4.1433
C    -1.8146 2.7630 3.6770
C    -1.2879 2.0852 2.5876
C    -2.0598 1.1027 1.9771
C    -3.3333 0.7972 2.4471
O    -0.3397 0.6673 0.4205
C    -1.5536 0.3806 0.7743
O    -2.2917 -0.3393 0.1152
H    -3.4391 2.9403 4.8888
H    -0.4178 2.2896 2.2652
H    -3.8417 0.1176 2.0221
X    -4.5560 1.4842 3.8322
X    -1.2370 3.1475 3.9643
   0    7 S
   1    2 A
   1    6 A
   1   13 S
   2    3 A
   2   10 S
   3    4 A
   3   14 S
   4    5 A
   4   11 S
   5    6 A
   5    8 S
   6   12 S
   7    8 S
   8    9 D
