23
   21   22
Ag   0.0000 0.0000 0.0000
H    -3.0868 4.6722 -1.7188
H    -4.0395 3.0470 -0.3588
H    -2.8047 1.2237 0.2355
H    0.2363 2.4862 -1.8546
H    -0.0535 -0.3571 3.0223
H    2.4985 -3.1612 4.2688
H    3.0478 -3.5624 2.0452
H    2.0933 -2.2845 0.4069
C    -1.2973 3.7546 -1.9147
C    -2.5992 3.9202 -1.4733
C    -3.1658 2.9548 -0.6615
C    -2.4204 1.8647 -0.3165
C    -0.6291 2.6142 -1.5385
C    0.5912 -0.9999 2.8311
C    1.1523 -1.6964 3.8838
C    2.0972 -2.6712 3.5877
C    2.4328 -2.9017 2.2677
C    1.8440 -2.1411 1.2906
N    -1.1610 1.6744 -0.7363
N    0.9232 -1.1979 1.5515
X    -0.6762 3.9852 -2.3227
X    1.0220 -1.4793 4.5849
   0   19 S
   0   20 S
   1   10 S
   2   11 S
   3   12 S
   4   13 S
   5   14 S
   6   16 S
   7   17 S
   8   18 S
   9   10 A
   9   13 A
   9   21 S
  10    1 S
  10   11 A
  11   12 A
  12   19 A
  13   19 A
  14   15 A
  14   20 A
  15   16 A
  15   22 S
  16   17 A
  17   18 A
  18   20 A
