11
    9   10
C    0.0000 0.0000 0.0000
C    -0.1082 -1.2248 -0.6481
C    -0.1392 -2.3649 0.1138
C    -0.0570 -2.2559 1.4901
C    0.0144 -1.0016 2.0502
H    0.0413 0.7721 -0.5161
H    -0.2142 -3.1998 -0.2897
H    0.0410 -0.9362 2.9777
N    0.0466 0.1231 1.3375
X    -0.3465 -1.2870 -1.2785
X    0.0377 -2.8760 1.8597
   0    1 A
   0    5 S
   0    8 A
   1    2 A
   1    9 S
   2    3 A
   2    6 S
   3    4 A
   3   10 S
   4    7 S
   4    8 A
