29
   27   28
N    0.0000 0.0000 0.0000
O    0.5012 -2.1789 0.1601
H    2.4701 -2.2123 6.6017
H    2.8033 -2.0222 8.8563
H    1.2376 1.6425 8.7986
H    2.7799 -1.9076 4.4337
H    2.3020 -2.1742 2.2007
H    0.8311 1.4250 6.5512
H    -0.6095 0.5444 2.5060
H    -1.0482 -0.9540 -1.3782
H    -1.2619 0.5958 -1.4023
H    -0.1607 0.7880 4.7437
H    0.0792 0.7768 0.3620
C    1.6148 -0.4133 6.3116
C    2.2099 -1.4333 7.0377
C    2.0828 -0.1635 9.0769
C    2.4219 -1.3129 8.3909
C    0.4302 -1.0709 0.6737
C    1.4832 0.8585 8.3616
C    2.0877 -1.4177 4.0527
C    1.8069 -1.5720 2.7084
C    0.7952 -0.8404 2.1089
C    1.2465 0.7294 7.0079
C    0.0713 0.0423 2.8937
C    -0.5929 -0.1004 -1.3124
C    0.3420 0.1899 4.2380
C    1.3528 -0.5387 4.8485
X    2.1536 -0.2273 9.7934
X    -0.0631 0.0741 -1.6907
   0   12 S
   0   17 S
   0   24 S
   1   17 D
   2   14 S
   3   16 S
   4   18 S
   5   19 S
   6   20 S
   7   22 S
   8   23 S
   9   24 S
  10   24 S
  11   25 S
  13   14 A
  13   22 A
  13   26 S
  14   16 A
  15   16 A
  15   18 A
  15   27 S
  17   21 S
  18   22 A
  19   20 A
  19   26 A
  20   21 A
  21   23 A
  23   25 A
  24   28 S
  25   26 A
