14
   12   13
H    0.0000 0.0000 0.0000
H    1.0218 0.4299 3.8360
O    -1.0846 -1.7263 1.4375
O    -0.6008 -1.3340 3.6319
C    1.5683 2.4680 1.3793
C    1.0283 1.7081 0.3876
C    0.3987 0.4962 0.6773
C    0.3751 0.0442 1.9722
C    0.9988 0.7651 2.9695
C    1.5955 1.9939 2.6849
H    1.9197 3.3058 1.1822
C    -0.3500 -1.2158 2.3595
X    1.0349 1.9711 -0.3260
X    1.9354 2.4167 3.1803
   0    6 S
   1    8 S
   2   11 A
   3   11 A
   4    5 A
   4    9 A
   4   10 S
   5    6 A
   5   12 S
   6    7 A
   7    8 A
   7   11 S
   8    9 A
   9   13 S
