16
   14   15
N    0.0000 0.0000 0.0000
C    0.7064 -1.3684 0.0024
N    2.2446 -1.4408 0.0046
N    3.0766 -0.1448 0.0048
C    2.3702 1.2234 0.0022
N    0.8320 1.2960 -0.0004
C    -0.1254 -2.6644 0.0026
C    -0.9572 -3.9604 0.0034
C    -1.7892 -5.2562 0.0024
N    -1.0828 -6.6248 0.0070
N    -1.9148 -7.9206 0.0046
C    -3.4530 -7.8482 -0.0010
N    -4.1594 -6.4796 -0.0046
N    -3.3274 -5.1838 -0.0034
X    2.7754 1.8545 0.0022
X    -3.8581 -8.4794 -0.0020
   0    1 A
   0    5 A
   1    2 A
   1    6 S
   2    3 A
   3    4 A
   4    5 A
   6    7 T
   7    8 S
   8    9 A
   8   13 A
   9   10 A
  10   11 A
  11   12 A
  12   13 A
  14    4 S
  15   11 S
