18
   16   17
C    0.0000 0.0000 0.0000
C    -1.3554 0.1780 -0.4586
C    -1.8502 1.3993 -0.6563
C    -1.0558 2.5584 -0.4457
C    0.2825 2.4117 -0.0573
C    0.7827 1.0928 0.1755
C    1.0746 3.5702 0.1404
C    0.5500 4.8078 -0.0058
C    -0.8258 4.9531 -0.2878
C    -1.6133 3.8664 -0.5452
H    -1.8939 -0.5745 -0.6212
H    -2.7408 1.4944 -0.9418
H    1.6740 0.9816 0.4539
H    1.9785 3.4772 0.3790
H    -1.2066 5.8133 -0.2995
H    -2.5142 3.9806 -0.7862
X    0.4840 -0.5401 0.0545
X    0.8163 5.5150 0.0061
   0    1 A
   0    5 A
   0   16 S
   1    2 A
   1   10 S
   2    3 A
   2   11 S
   3    4 A
   3    9 A
   4    5 A
   4    6 A
   5   12 S
   6    7 A
   6   13 S
   7    8 A
   7   17 S
   8    9 A
   8   14 S
   9   15 S
