28
   26   27
N    0.0000 0.0000 0.0000
N    1.6363 3.1569 -1.0691
C    -0.7020 -2.6829 0.0290
C    0.2601 -2.1992 0.8610
C    0.5772 -0.8389 0.8189
H    0.7105 -2.7774 1.4667
C    -1.2851 -1.7877 -0.8558
H    1.2434 -0.5092 1.4114
C    -0.9005 -0.4724 -0.8716
C    0.3792 1.4131 0.0421
H    -1.9579 -2.0891 -1.4535
H    -1.2775 0.1148 -1.5167
H    0.7315 1.6418 0.9374
H    -0.4146 1.9798 -0.1343
H    0.7144 5.6703 -2.8912
C    2.0418 5.8453 -1.3271
H    0.4358 3.3469 -2.6068
C    1.0142 3.8217 -2.0223
H    1.1257 1.3219 -1.8722
H    2.2672 1.2161 -0.7478
C    2.4787 3.7437 -0.2660
C    1.4219 1.6691 -0.9953
C    1.1741 5.2007 -2.2040
H    2.9658 3.2417 0.3765
C    2.6521 5.1103 -0.3634
H    3.2167 5.5495 0.2633
X    -0.6879 -3.3796 -0.1169
X    1.9390 6.5580 -1.2787
   0    4 A
   0    8 A
   0    9 S
   1   17 A
   1   20 A
   1   21 S
   2    3 A
   2    6 A
   2   26 S
   3    4 A
   3    5 S
   4    7 S
   6    8 A
   6   10 S
   8   11 S
   9   12 S
   9   13 S
   9   21 S
  14   22 S
  15   22 A
  15   24 A
  15   27 S
  16   17 S
  17   22 A
  18   21 S
  19   21 S
  20   23 S
  20   24 A
  24   25 S
