22
   20   21
C    0.0000 0.0000 0.0000
C    2.3535 -0.2782 0.5635
C    1.7195 1.4412 -0.9355
N    4.0730 1.1521 -0.3521
N    1.4136 0.0956 -0.5177
H    5.6297 2.1389 -1.2732
H    5.6235 0.5673 -1.5777
H    3.3243 2.4476 -1.7385
H    3.2515 0.9151 -2.2039
H    3.8880 -0.8130 -0.6984
H    4.3900 -0.4673 0.7866
H    -0.1431 -0.8912 0.4034
H    -0.1369 0.6804 0.7079
H    2.1623 -1.1999 0.8687
H    2.2351 0.3326 1.3341
H    1.5986 2.0607 -0.1714
H    1.0966 1.7150 -1.6564
C    5.4866 1.2477 -0.8698
C    3.1331 1.5259 -1.4333
C    3.7671 -0.1935 0.0657
X    -0.3625 -0.0726 -0.7309
X    5.8491 1.3203 -0.1389
   0    4 S
   0   11 S
   0   12 S
   0   20 S
   1    4 S
   1   13 S
   1   14 S
   1   19 S
   2    4 S
   2   15 S
   2   16 S
   2   18 S
   3   17 S
   3   18 S
   3   19 S
   5   17 S
   6   17 S
   7   18 S
   8   18 S
   9   19 S
  10   19 S
  17   21 S
