34
   32   33
H    0.0000 0.0000 0.0000
H    1.9951 0.2231 1.4046
H    2.9058 -4.1183 -4.2743
H    2.5480 -2.7339 -6.2075
C    -0.5990 -2.1754 -1.7945
C    -1.0848 -3.5987 -1.4649
C    -2.4055 -3.9402 -1.1354
C    -2.7244 -5.2577 -0.8074
C    1.3502 -4.1260 -1.7881
C    -0.0748 -4.6100 -1.4631
C    -0.4193 -5.9306 -1.1370
C    -1.7374 -6.2470 -0.8090
H    -0.5850 -0.6295 -4.2862
H    0.8066 -0.9933 -6.2133
H    3.5247 -3.5188 0.0022
H    3.7437 -1.5223 1.4057
H    -3.1884 -3.2005 -1.1163
H    -3.7395 -5.5043 -0.5384
H    0.3186 -6.7155 -1.1208
H    -1.9864 -7.2620 -0.5419
C    0.5576 -1.9462 -0.7899
C    0.7225 -0.8022 0.0066
C    1.8656 -0.6653 0.7998
C    1.1928 -3.3593 -3.1361
C    2.0567 -3.4621 -4.2476
C    1.8823 -2.6392 -5.3586
C    0.1716 -2.3380 -3.1394
C    0.0718 -1.4782 -4.2543
C    0.8985 -1.6559 -5.3620
C    1.5774 -2.9662 -0.7872
C    2.7212 -2.7978 0.0088
C    2.8559 -1.6537 0.8005
X    -1.1783 -1.6374 -1.7549
X    1.8904 -4.7030 -1.7463
   0   21 S
   1   22 S
   2   24 S
   3   25 S
   4    5 S
   4   20 S
   4   26 S
   4   32 S
   5    6 A
   5    9 A
   6    7 A
   6   16 S
   7   11 A
   7   17 S
   8    9 S
   8   23 S
   8   29 S
   8   33 S
   9   10 A
  10   11 A
  10   18 S
  11   19 S
  12   27 S
  13   28 S
  14   30 S
  15   31 S
  20   21 A
  20   29 A
  21   22 A
  22   31 A
  23   24 A
  23   26 A
  24   25 A
  25   28 A
  26   27 A
  27   28 A
  29   30 A
  30   31 A
