20
   18   19
C    0.0000 0.0000 0.0000
N    0.7572 -1.3310 -0.1672
N    2.2916 -1.3322 -0.2964
C    3.0678 -0.0024 -0.2606
N    2.3100 1.3296 -0.1088
N    0.7756 1.3306 0.0204
C    -1.5310 -0.0012 0.1678
N    -2.2864 1.3280 0.3544
N    -3.8066 1.3212 0.6024
C    -4.5692 -0.0150 0.6650
N    -3.8244 -1.3396 0.4154
N    -2.3046 -1.3328 0.1678
C    -6.0732 -0.0276 0.9948
N    -6.8324 -1.3648 1.0762
N    -8.3272 -1.3794 1.4458
C    -9.0642 -0.0568 1.7290
N    -8.3086 1.2812 1.6318
N    -6.8136 1.2958 1.2634
X    3.8157 -0.0035 -0.3172
X    -9.7909 -0.0643 1.9142
   0    1 A
   0    5 A
   0    6 S
   1    2 A
   2    3 A
   3    4 A
   4    5 A
   6    7 A
   6   11 A
   7    8 A
   8    9 A
   9   10 A
   9   12 S
  10   11 A
  12   13 A
  12   17 A
  13   14 A
  14   15 A
  15   16 A
  16   17 A
  18    3 S
  19   15 S
