15
   13   14
S    0.0000 0.0000 0.0000
C    0.1948 0.3545 -1.6895
C    1.4360 0.8869 -1.9330
C    3.2098 1.6520 -3.2151
C    3.6784 2.2888 -2.0031
C    2.2177 1.0015 -0.7007
C    1.6335 0.5418 0.3343
O    3.4906 1.4817 -0.8095
O    1.8236 1.3398 -3.1487
H    3.7140 0.8369 -3.3627
H    3.3688 2.2422 -3.9678
H    3.2092 3.1299 -1.8887
H    4.6231 2.4897 -2.0990
X    -0.3939 0.3300 -2.1497
X    1.8003 0.4673 1.0464
   0    1 A
   0    6 A
   1    2 A
   1   13 S
   2    5 A
   2    8 S
   3    4 S
   3    8 S
   3    9 S
   3   10 S
   4    7 S
   4   11 S
   4   12 S
   5    6 A
   5    7 S
   6   14 S
