20
   18   19
H    0.0000 0.0000 0.0000
H    -0.0828 -0.8256 1.3208
H    -6.1696 -5.7723 0.2232
H    -5.9637 -4.9959 1.5580
C    -2.1853 -2.0720 0.8418
C    -3.0897 -2.9125 0.1572
C    -3.9143 -3.7255 0.8718
C    -3.9028 -3.7484 2.2912
O    -1.4207 -1.2726 0.0360
C    -2.1594 -2.0651 2.2389
C    -2.9658 -2.9262 2.9423
O    -4.7122 -4.5653 0.2063
C    -0.6153 -0.3476 0.6651
C    -5.4969 -5.4693 0.8518
H    -3.1226 -2.9102 -0.7720
H    -4.4909 -4.2858 2.7719
H    -2.8912 -2.9662 3.8695
H    -1.5978 -1.4774 2.6905
X    -0.8493 0.2501 1.0013
X    -5.2536 -6.1087 1.1569
   0   12 S
   1   12 S
   2   13 S
   3   13 S
   4    5 A
   4    8 S
   4    9 A
   5    6 A
   5   14 S
   6    7 A
   6   11 S
   7   10 A
   7   15 S
   8   12 S
   9   10 A
   9   17 S
  10   16 S
  11   13 S
  12   18 S
  13   19 S
