28
   26   27
C    0.0000 0.0000 0.0000
C    -0.9135 -0.9620 0.1946
C    -1.7164 -1.3619 -0.8144
C    -1.6597 -0.8435 -2.0624
C    -0.6757 0.1648 -2.3116
C    0.1930 0.5824 -1.2841
C    -2.5647 -1.4277 -3.1381
C    -4.7809 -2.7603 -7.4058
C    -3.4911 -2.4501 -7.6004
C    -2.7433 -1.9548 -6.5914
C    -3.2206 -1.7446 -5.3434
C    -4.5858 -2.0927 -5.0942
C    -5.3818 -2.6362 -6.1217
C    -2.2622 -1.2530 -4.2678
H    -0.9937 -1.3545 1.0377
H    -2.3413 -2.0295 -0.6393
H    -0.6083 0.5463 -3.1501
H    0.8611 1.2119 -1.4361
H    -2.6241 -2.3841 -2.9833
H    -3.4542 -1.0629 -3.0019
H    -3.1110 -2.5770 -8.4435
H    -1.8527 -1.7474 -6.7665
H    -4.9498 -1.9603 -4.2557
H    -6.2611 -2.9001 -5.9697
H    -1.4042 -1.6798 -4.4225
H    -2.1334 -0.3003 -4.4040
X    0.2357 0.3087 0.7097
X    -5.0012 -3.0745 -8.1121
   0    1 A
   0    5 A
   0   26 S
   1    2 A
   1   14 S
   2    3 A
   2   15 S
   3    4 A
   3    6 S
   4    5 A
   4   16 S
   5   17 S
   6   13 S
   6   18 S
   6   19 S
   7    8 A
   7   12 A
   7   27 S
   8    9 A
   8   20 S
   9   10 A
   9   21 S
  10   11 A
  10   13 S
  11   12 A
  11   22 S
  12   23 S
  13   24 S
  13   25 S
