12
    9   10   11
C    0.0000 0.0000 0.0000
C    0.7700 -1.3336 0.0000
C    2.3100 -1.3336 0.0000
C    3.0800 0.0000 0.0000
C    2.3100 1.3336 0.0000
C    0.7700 1.3336 0.0000
H    0.2000 -2.3210 0.0000
H    4.2200 0.0000 0.0000
H    0.2000 2.3210 0.0000
X    -0.7500 0.0000 0.0000
X    2.6850 -1.9831 0.0000
X    2.6850 1.9831 0.0000
   0    1 A
   0    5 A
   1    2 A
   1    6 S
   2    3 A
   3    4 A
   3    7 S
   4    5 A
   5    8 S
   9    0 S
  10    2 S
  11    4 S
