36
   30   31   32   33   34   35
O    0.0000 0.0000 0.0000
Be   -2.4719 1.0405 1.2414
Be   0.2195 -1.0745 3.3564
O    -3.7746 1.9424 0.9063
Be   0.2195 1.0405 1.2414
O    -2.7150 3.4636 -0.2669
O    1.5221 -1.4096 4.2584
Be   -2.4719 -1.0745 3.3564
O    0.4626 -2.5828 5.7795
O    -2.2524 -2.3159 2.3159
O    -2.2524 0.0000 0.0000
O    1.5221 1.9424 0.9063
O    0.4626 3.4636 -0.2669
H    -1.1262 2.7038 1.8009
H    -1.1262 -0.5150 5.0197
O    -3.7746 -1.4096 4.2584
O    -2.7150 -2.5828 5.7795
H    -3.6884 0.5132 2.8291
H    1.4360 0.5132 2.8291
O    0.0000 -2.3159 2.3159
O    -1.1262 1.8220 1.5041
O    -1.1262 -0.8118 4.1380
O    -2.8966 0.1682 2.4841
O    0.6441 0.1682 2.4841
C    -3.7438 2.9778 0.1489
C    1.4914 -2.1670 5.2938
C    1.4914 2.9778 0.1489
C    -3.7438 -2.1670 5.2938
C    -1.1262 -0.3242 -0.5202
C    -1.1262 -2.8361 1.9918
X    -4.3936 3.2992 -0.0108
X    2.1411 -2.3267 5.6151
X    2.1411 3.2992 -0.0108
X    -4.3936 -2.3267 5.6151
X    -1.1262 -0.7220 -1.1344
X    -1.1262 -3.4504 1.5939
   0   28 A
   0    4 S
   1    3 S
   1   10 S
   1   20 S
   1   22 S
   2    6 S
   2   19 S
   2   21 S
   2   23 S
   3   24 S
   4   11 S
   4   20 S
   4   23 S
   5   24 D
   6   25 S
   7    9 S
   7   15 S
   7   21 S
   7   22 S
   8   25 D
   9   29 A
  10   28 A
  11   26 S
  12   26 D
  13   20 S
  14   21 S
  15   27 S
  16   27 D
  17   22 S
  18   23 S
  19   29 A
  24   30 S
  25   31 S
  26   32 S
  27   33 S
  28   34 S
  29   35 S
