97
   89   90   91   92   93   94   95   96
C    0.0000 0.0000 0.0000
C    -0.6072 0.7503 -0.9313
C    -0.6680 0.4069 -2.1989
C    -0.2010 -0.9232 -2.4200
C    0.3895 -1.5972 -1.4545
C    8.9493 -2.9197 -1.0963
C    9.6005 -3.8175 -1.9030
C    9.3953 -5.1502 -1.8688
C    8.5892 -5.6003 -0.9313
C    8.0385 -4.6797 -0.0779
C    5.3457 0.7732 4.6096
C    5.7478 1.6989 5.4101
C    6.4974 1.4573 6.5064
C    6.7654 0.1246 6.7556
C    6.1791 -0.8215 5.8897
C    3.1073 -4.5220 4.8775
C    2.6886 -5.4299 5.7246
C    2.4771 -5.0739 7.0141
C    2.7409 -3.7514 7.4065
C    3.2204 -2.8917 6.4597
C    5.3457 -5.0205 -2.2861
C    5.7478 -5.9462 -3.0866
C    6.4974 -5.7046 -4.1829
C    6.7654 -4.3719 -4.4321
C    6.1791 -3.4258 -3.5662
C    3.1073 0.2747 -2.5540
C    2.6886 1.1826 -3.4011
C    2.4771 0.8266 -4.6906
C    2.7409 -0.4959 -5.0830
C    3.2204 -1.3556 -4.1362
S    3.0785 -3.4892 -0.0371
S    3.0785 -0.7582 2.3606
S    5.6676 -3.3327 2.5203
S    5.6676 -0.9146 -0.1968
N    0.5235 -3.0799 2.5727
N    8.2269 -0.9054 2.4418
N    0.5235 -1.1674 -0.2492
N    8.2269 -3.3419 -0.1184
N    5.4232 -0.5544 4.8712
N    3.4445 -3.2351 5.1889
N    5.4232 -3.6929 -2.5477
N    3.4445 -1.0122 -2.8654
Cu   4.3746 -1.9642 3.8372
Cu   4.3746 -2.2831 -1.5137
Cu   1.6695 -2.1237 1.1617
Cu   7.0906 -2.1237 1.1617
H    0.0503 -4.5754 1.4576
H    -1.0009 -5.7962 2.9931
H    -0.3120 -2.9273 5.5782
H    0.7287 -1.8083 3.9805
H    9.0310 -2.2406 3.5787
H    10.2203 -0.7604 4.8370
H    8.4007 2.2610 3.1738
H    7.4794 0.7579 1.7348
H    0.0503 0.3281 0.8659
H    -1.0009 1.5489 -0.6696
H    -0.3120 -1.3200 -3.2548
H    0.7287 -2.4390 -1.6570
H    9.0310 -2.0067 -1.2552
H    10.2203 -3.4869 -2.5135
H    8.4007 -6.5083 -0.8503
H    7.4794 -5.0052 0.5887
H    4.9793 1.0326 3.7967
H    5.5111 2.5789 5.2232
H    7.3098 -0.1373 7.4626
H    6.3529 -1.7193 6.0672
H    3.1806 -4.7763 3.9867
H    2.5378 -6.3048 5.4474
H    2.5964 -3.4716 8.2817
H    3.3984 -2.0143 6.7151
H    4.9793 -5.2799 -1.4732
H    5.5111 -6.8262 -2.8997
H    7.3098 -4.1100 -5.1391
H    6.3529 -2.5280 -3.7437
H    3.1806 0.5290 -1.6632
H    2.5378 2.0575 -3.1239
H    2.5964 -0.7757 -5.9582
H    3.3984 -2.2330 -4.3916
W    4.3710 -2.1237 1.1617
C    0.0000 -4.2473 2.3235
C    -0.6072 -4.9976 3.2548
C    -0.6680 -4.6542 4.5224
C    -0.2010 -3.3241 4.7435
C    0.3895 -2.6501 3.7780
C    8.9493 -1.3276 3.4198
C    9.6005 -0.4298 4.2265
C    9.3953 0.9029 4.1923
C    8.5892 1.3530 3.2548
C    8.0385 0.4324 2.4014
X    -0.9025 0.8393 -2.7673
X    9.7073 -5.6545 -2.3403
X    6.7696 1.9800 6.9705
X    2.2133 -5.5724 7.5109
X    6.7696 -6.2273 -4.6470
X    2.2133 1.3251 -5.1874
X    -0.9025 -5.0866 5.0908
X    9.7073 1.4072 4.6638
   0    1 A
   0   36 A
   0   54 S
   1    2 A
   1   55 S
   2    3 A
   2   89 S
   3    4 A
   3   56 S
   4   36 A
   4   57 S
   5    6 A
   5   37 A
   5   58 S
   6    7 A
   6   59 S
   7    8 A
   7   90 S
   8    9 A
   8   60 S
   9   37 A
   9   61 S
  10   11 A
  10   38 A
  10   62 S
  11   12 A
  11   63 S
  12   13 A
  12   91 S
  13   14 A
  13   64 S
  14   38 A
  14   65 S
  15   16 A
  15   39 A
  15   66 S
  16   17 A
  16   67 S
  17   18 A
  17   92 S
  18   19 A
  18   68 S
  19   39 A
  19   69 S
  20   21 A
  20   40 A
  20   70 S
  21   22 A
  21   71 S
  22   23 A
  22   93 S
  23   24 A
  23   72 S
  24   40 A
  24   73 S
  25   26 A
  25   41 A
  25   74 S
  26   27 A
  26   75 S
  27   28 A
  27   94 S
  28   29 A
  28   76 S
  29   41 A
  29   77 S
  30   43 S
  30   44 S
  30   78 S
  31   42 S
  31   44 S
  31   78 S
  32   42 S
  32   45 S
  32   78 S
  33   43 S
  33   45 S
  33   78 S
  34   44 S
  34   79 A
  34   83 A
  35   45 S
  35   84 A
  35   88 A
  36   44 S
  37   45 S
  38   42 S
  39   42 S
  40   43 S
  41   43 S
  42   78 S
  43   78 S
  44   78 S
  45   78 S
  46   79 S
  47   80 S
  48   82 S
  49   83 S
  50   84 S
  51   85 S
  52   87 S
  53   88 S
  79   80 A
  80   81 A
  81   82 A
  81   95 S
  82   83 A
  84   85 A
  85   86 A
  86   87 A
  86   96 S
  87   88 A
