21
   18   19   20
H    0.0000 0.0000 0.0000
S    -0.8744 2.7055 -2.1979
H    -3.4736 3.2475 3.9158
S    -1.5677 0.4720 2.6592
C    -3.4908 5.9364 -0.0179
C    -2.6924 5.1524 -0.8880
C    -2.4110 3.8894 -0.1842
C    -2.9255 3.8389 1.1150
C    -2.9818 2.6236 3.3973
C    -2.6311 2.7460 1.9720
C    -1.8421 1.6964 1.4912
C    -2.4442 1.3913 3.8464
C    -0.0779 1.2335 -1.7268
C    -0.3576 0.7743 -0.4154
C    -1.3107 1.7295 0.1752
C    -1.6118 2.8144 -0.6541
H    -2.3980 5.3954 -1.7565
S    -3.8486 5.2233 1.5270
X    -4.0848 6.3687 -0.2082
X    -2.6113 0.7933 4.2789
X    0.7646 1.5101 -1.8389
   0   13 S
   1   12 A
   1   15 A
   2    8 S
   3   10 A
   3   11 A
   4    5 A
   4   17 A
   4   18 S
   5    6 A
   5   16 S
   6    7 A
   6   15 A
   7    9 A
   7   17 A
   8    9 A
   8   11 A
   9   10 A
  10   14 A
  11   19 S
  12   13 A
  12   20 S
  13   14 A
  14   15 A
