31
   27   28   29   30
H    0.0000 0.0000 0.0000
H    0.8294 -1.9918 0.8654
H    4.5365 -0.6002 0.2544
H    3.6280 1.3664 -0.6636
H    1.9692 5.1170 -2.3281
H    1.1397 7.1088 -3.1936
H    -2.5674 5.7172 -2.5825
H    -1.6589 3.7506 -1.6645
C    0.9413 -0.1207 0.0387
C    1.4276 -1.3145 0.5724
C    2.7717 -1.4888 0.6691
C    3.5937 -0.4946 0.2046
C    3.0447 0.6874 -0.3456
C    -1.3128 2.1561 0.4783
C    1.0278 5.2377 -2.3668
C    0.5415 6.4314 -2.9005
C    -0.8026 6.6058 -2.9973
C    -1.6246 5.6116 -2.5327
C    -1.0756 4.4296 -1.9825
C    3.2819 2.9609 -2.8065
N    1.7275 0.8702 -0.4230
N    0.2417 4.2468 -1.9051
O    -0.1790 2.7094 0.3890
O    -1.8319 1.4251 -0.3794
O    2.1482 2.4076 -2.7172
O    3.8011 3.6919 -1.9488
Cu   0.9846 2.5585 -1.1641
X    2.8956 -2.2944 0.6241
X    -2.0416 1.8886 0.6259
X    -0.9264 7.4114 -2.9522
X    4.0107 3.2284 -2.9540
   0    8 S
   1    9 S
   2   11 S
   3   12 S
   4   14 S
   5   15 S
   6   17 S
   7   18 S
   8    9 A
   8   20 A
   9   10 A
  10   11 A
  10   27 S
  11   12 A
  12   20 A
  13   22 S
  13   23 D
  13   28 S
  14   15 A
  14   21 A
  15   16 A
  16   17 A
  16   29 S
  17   18 A
  18   21 A
  19   24 S
  19   25 D
  19   30 S
  20   26 S
  21   26 S
  22   26 S
  24   26 S
