54
   42   43   44   45   46   47   48   49   50   51   52   53
O    0.0000 0.0000 0.0000
O    1.1979 1.1158 1.4470
Nd   0.8174 1.4352 3.8154
Nd   -1.2691 2.0474 0.3527
Nd   2.7574 3.5995 6.8025
O    -3.2922 3.2521 1.2856
O    -2.2901 4.0917 -0.4737
Nd   1.9214 5.6069 10.2651
O    3.9963 1.6631 6.0356
O    0.7762 4.6774 5.9246
C    3.2490 6.8973 7.9634
C    3.3693 3.9868 3.8160
C    1.0862 0.1812 0.5990
H    -1.7208 4.8895 -0.3314
C    -3.3167 3.9877 0.4223
C    1.0906 3.9144 12.4270
C    -0.2603 4.3528 5.3089
C    3.8843 0.6378 5.3089
C    -2.4072 0.5871 2.6545
C    0.4992 0.7847 6.8019
C    4.0332 3.4690 10.0188
C    -0.2305 7.4309 10.1955
O    -0.0052 0.2980 5.7924
O    1.2420 1.8087 6.7116
C    0.3228 3.0578 -1.8092
O    -0.6660 2.3813 -1.9886
O    0.7511 3.3295 -0.8210
O    3.7982 4.5412 4.8255
O    2.4324 3.1367 3.9063
H    -0.9530 5.7461 10.9493
O    0.8672 3.4590 11.4388
O    1.6552 4.9710 12.6064
O    -1.3857 1.3868 2.8041
O    -2.8016 0.2447 1.5294
O    4.0950 4.5685 10.6178
O    3.1163 3.2561 9.1708
O    0.5035 7.4867 9.3323
O    -0.2219 6.3990 11.0916
O    -0.4700 3.2871 4.6932
O    2.8773 0.4148 4.5822
O    2.5654 5.7948 7.8138
O    3.5463 7.3267 9.0884
X    3.3729 7.1182 7.2075
X    3.5476 4.0076 3.0805
X    1.5894 -0.3336 0.4543
X    -3.8142 4.5478 0.2989
X    0.9196 3.7067 13.2103
X    -0.7724 4.9177 5.2901
X    4.3908 0.0791 5.3275
X    -2.6430 0.4896 3.4064
X    0.4586 0.6120 7.5426
X    4.4959 2.9183 10.1995
X    -0.7394 7.9809 10.2819
X    0.5504 3.2029 -2.5903
   0   12 D
   0    3 S
   1   12 S
   1    2 S
   1    3 S
   2   22 S
   2   28 S
   2   32 S
   2   38 S
   2   39 S
   3    5 S
   3    6 S
   3   25 S
   3   26 S
   3   32 S
   3   33 S
   4    8 S
   4    9 S
   4   23 S
   4   27 S
   4   35 S
   4   40 S
   5   14 D
   6   13 S
   6   14 S
   7   30 S
   7   31 S
   7   34 S
   7   35 S
   7   36 S
   7   37 S
   7   40 S
   7   41 S
   8   17 A
   9   16 A
  10   40 S
  10   41 D
  10   42 S
  11   27 A
  11   28 A
  11   43 S
  12   44 S
  14   45 S
  15   30 A
  15   31 A
  15   46 S
  16   38 A
  16   47 S
  17   39 A
  17   48 S
  18   32 S
  18   33 D
  18   49 S
  19   22 A
  19   23 A
  19   50 S
  20   34 D
  20   35 S
  20   51 S
  21   36 D
  21   37 S
  21   52 S
  24   25 A
  24   26 A
  24   53 S
  29   37 S
