55
   47   48   49   50   51   52   53   54
Mn   0.0000 0.0000 0.0000
Mn   3.5993 0.4073 0.2242
Mn   10.8081 1.8155 -6.5294
Mn   7.2088 1.4082 -6.7535
Mn   5.4040 0.9078 -3.2647
C    1.1228 -3.0588 0.8845
N    1.2718 -1.7596 0.6852
N    2.5954 -1.5221 0.6932
N    3.2207 -2.7009 0.8441
N    2.3100 -3.6422 1.0004
N    6.0476 -1.4963 0.2190
N    5.3310 -0.7150 -0.5892
N    5.8404 -0.7305 -1.7774
N    6.9250 -1.5255 -1.8232
C    7.0070 -1.9833 -0.5569
C    5.6075 4.0965 -0.4222
N    4.6492 2.2259 -0.4572
N    4.8990 3.2516 0.3349
N    3.0728 0.3502 -3.1100
N    2.6248 0.3468 -1.8472
N    1.3405 0.0663 -1.8367
N    0.9046 -0.1196 -3.0691
N    5.1770 2.4359 -1.6508
N    5.7961 3.6319 -1.6670
C    1.9744 0.0766 -3.8547
N    9.5362 3.5751 -7.2145
N    8.2127 3.3376 -7.2226
N    7.5874 4.5164 -7.3735
N    8.4981 5.4577 -7.5298
N    4.7605 3.3118 -6.7484
N    5.4771 2.5305 -5.9401
N    4.9677 2.5460 -4.7519
N    3.8831 3.3410 -4.7061
N    5.0120 -1.8164 -4.8624
N    5.6311 -0.6204 -4.8786
N    6.1589 -0.4104 -6.0721
N    5.9091 -1.4361 -6.8643
N    7.7353 1.4653 -3.4193
N    8.1833 1.4688 -4.6822
N    9.4676 1.7493 -4.6927
N    9.9035 1.9351 -3.4603
Cl   1.6096 1.6477 0.9530
Cl   9.1984 0.1678 -7.4823
C    9.6852 4.8743 -7.4139
C    3.8011 3.7988 -5.9725
C    5.2005 -2.2810 -6.1072
C    8.8337 1.7389 -2.6746
X    0.3788 -3.1918 0.9546
X    7.3760 -2.5599 -0.2996
X    6.0174 4.6262 -0.1770
X    1.9023 0.0174 -4.5808
X    10.4293 5.0073 -7.4840
X    3.4321 4.3754 -6.2298
X    4.7907 -2.8107 -6.3524
X    8.9058 1.7981 -1.9485
   0    6 S
   0   20 S
   0   41 S
   1    7 S
   1   11 S
   1   16 S
   1   19 S
   1   41 S
   2   25 S
   2   39 S
   2   42 S
   3   26 S
   3   30 S
   3   35 S
   3   38 S
   3   42 S
   4   12 S
   4   18 S
   4   22 S
   4   31 S
   4   34 S
   4   37 S
   5    6 A
   5    9 A
   5   47 S
   6    7 A
   7    8 A
   8    9 A
  10   11 A
  10   14 A
  11   12 A
  12   13 A
  13   14 A
  14   48 S
  15   17 A
  15   23 A
  15   49 S
  16   17 A
  16   22 A
  18   19 A
  18   24 A
  19   20 A
  20   21 A
  21   24 A
  22   23 A
  24   50 S
  25   26 A
  25   43 A
  26   27 A
  27   28 A
  28   43 A
  29   30 A
  29   44 A
  30   31 A
  31   32 A
  32   44 A
  33   34 A
  33   45 A
  34   35 A
  35   36 A
  36   45 A
  37   38 A
  37   46 A
  38   39 A
  39   40 A
  40   46 A
  43   51 S
  44   52 S
  45   53 S
  46   54 S
