26
   20   21   22   23   24   25
Dy   0.0000 0.0000 0.0000
Dy   4.1169 -1.2232 -0.0623
C    1.7630 -2.2533 -2.0279
C    -1.5425 1.9012 -1.3020
C    2.6241 1.2835 -1.7752
C    2.3540 1.0301 1.9656
C    5.6594 -3.1244 1.2396
C    1.4929 -2.5067 1.7128
O    2.9664 -2.4024 -1.7443
O    0.9486 -1.5071 -1.4227
O    -0.9788 2.2264 -0.2376
O    -1.4712 0.7448 -1.7864
O    1.4838 1.2666 -1.2472
O    3.5235 0.4450 -1.5926
O    1.1506 1.1792 1.6819
O    3.1683 0.2839 1.3604
O    5.0957 -3.4496 0.1752
O    5.5881 -1.9681 1.7241
O    2.6331 -2.4898 1.1849
O    0.5934 -1.6682 1.5303
X    1.8150 -2.4026 -2.6581
X    -1.9091 2.4833 -1.6057
X    2.7851 2.0644 -1.8851
X    2.3019 1.1794 2.5958
X    6.0261 -3.7065 1.5433
X    1.3318 -3.2877 1.8228
   0    9 S
   0   10 S
   0   11 S
   0   12 S
   0   14 S
   0   19 S
   1    8 S
   1   13 S
   1   15 S
   1   16 S
   1   17 S
   1   18 S
   2    8 A
   2    9 A
   2   20 S
   3   10 A
   3   11 A
   3   21 S
   4   12 A
   4   13 A
   4   22 S
   5   14 A
   5   15 A
   5   23 S
   6   16 A
   6   17 A
   6   24 S
   7   18 A
   7   19 A
   7   25 S
