22
   19   20   21
C    0.0000 0.0000 0.0000
N    -0.4492 -1.5648 -1.7055
N    -1.5798 0.3934 -1.7055
C    -2.2589 -2.6874 -5.3707
C    -1.6654 -2.3563 -4.1662
C    0.2053 -1.1754 -0.5775
C    -3.4568 -0.6125 -5.3707
C    -2.8733 -0.2641 -4.1662
C    -0.9153 0.7655 -0.5775
H    -0.9954 -3.0343 -3.7786
H    -0.2817 -2.4194 -2.0829
H    0.8334 -1.7714 -0.1879
H    -3.1254 0.6551 -3.7786
H    -2.2361 0.9657 -2.0829
H    -1.1174 1.6074 -0.1879
H    -3.4805 -2.0094 -6.7716
C    -3.1336 -1.8092 -5.9860
C    -1.9580 -1.1305 -3.5578
C    -1.3108 -0.7568 -2.2687
X    0.5153 -0.0345 0.5953
X    -2.5000 -3.2258 -5.6960
X    -3.6980 -0.0418 -5.6960
   0    5 A
   0    8 A
   0   19 S
   1    5 A
   1   10 S
   1   18 A
   2    8 A
   2   13 S
   2   18 A
   3    4 A
   3   16 A
   3   20 S
   4    9 S
   4   17 A
   5   11 S
   6    7 A
   6   16 A
   6   21 S
   7   12 S
   7   17 A
   8   14 S
  15   16 S
  17   18 S
