88
   84   85   86   87
C    0.0000 0.0000 0.0000
C    1.2273 -0.2445 0.6874
C    1.1955 -0.8312 1.9797
C    -0.0807 -1.0659 2.5777
C    -1.3031 -0.8312 1.8697
C    -1.2566 -0.3178 0.5637
C    2.5646 0.0978 0.0550
C    -0.1247 -1.5158 4.0557
C    -2.5132 0.0000 -0.2062
C    2.4717 -1.1099 2.7427
C    2.4986 -3.6281 2.7084
C    2.6795 -4.8358 3.2926
C    3.1391 -4.9385 4.6537
C    3.3469 -3.8139 5.3136
C    3.0780 -2.5108 4.7568
C    2.6624 -2.4741 3.3958
C    3.4691 -6.2586 5.3067
C    3.3713 -1.1955 5.5611
C    2.1979 -3.5938 1.2236
C    -3.4251 -2.4863 4.5231
H    3.2711 -0.1394 0.6599
H    2.6159 1.0146 -0.1444
H    2.6795 -0.4132 -0.7424
H    0.7603 -1.6136 4.3787
H    -0.5916 -2.3323 4.1244
H    -0.5770 -0.8459 4.5712
H    -3.2711 -0.2518 0.3025
H    -2.5059 -0.4621 -1.0311
H    -2.5523 0.9437 -0.3781
H    -2.7333 -0.4474 3.2102
H    3.1880 -0.9950 2.1241
H    2.5377 -0.4596 3.4301
H    3.2491 -6.9701 4.7087
H    4.3835 -6.2929 5.5198
H    2.9459 -6.3515 6.0972
H    3.1220 -0.4450 5.0318
H    2.8555 -1.1979 6.3584
C    -3.7430 -3.7430 5.0868
C    -3.4985 -4.9702 4.3994
C    -2.9117 -4.9385 3.1070
H    4.2906 -1.1466 5.7742
C    -2.9117 -2.4399 3.2170
H    2.4765 -6.8307 3.1895
C    -3.8408 -6.3075 5.0318
C    -2.2272 -3.6183 1.0311
H    2.0952 -2.6893 0.9486
H    2.9166 -3.9923 0.7493
C    -0.1149 -6.2415 2.3784
H    1.3960 -4.0706 1.0517
C    -2.6770 -3.6623 2.5090
C    0.0709 -7.0899 -0.2268
C    -1.2322 -6.8209 0.3300
C    -1.2689 -6.4053 1.6910
C    2.5157 -7.2121 -0.2200
C    -2.5475 -7.1143 -0.4743
C    -0.1491 -5.9408 3.8632
C    -3.7430 -1.2297 5.2930
C    1.0928 -6.4224 1.7941
C    -2.6330 -6.2146 2.3440
C    1.1955 -6.8821 0.4331
H    -3.6036 -7.0141 4.4269
H    -4.7576 -6.3589 5.2311
H    -3.3298 -6.4224 5.8291
H    -2.1294 -4.5033 0.7080
H    -1.4106 -3.1513 0.9624
H    -2.8971 -3.1660 0.5155
H    -3.4911 -0.4718 4.7843
H    -3.2809 -1.2371 6.1179
H    -4.6866 -1.1906 5.4648
H    -3.2956 -1.0097 1.8766
H    -2.7479 -6.9310 2.9627
H    -3.2834 -6.2806 1.6566
H    3.2271 -6.9921 0.3781
H    2.5499 -8.1264 -0.4331
H    2.6086 -6.6889 -1.0105
H    -3.2980 -6.8649 0.0550
H    -2.5450 -6.5985 -1.2717
H    -2.5964 -8.0335 -0.6874
H    -1.0537 -5.8381 4.1381
H    0.2494 -6.6596 4.3375
H    0.3276 -5.1389 4.0350
H    3.0877 -6.2195 1.8972
C    -2.6220 -1.1209 2.5434
C    2.3934 -6.1364 2.5434
X    0.3019 0.5146 -0.2860
X    3.4007 -4.0901 5.9103
X    -4.2576 -4.0449 5.3727
X    0.3471 -7.1436 -0.8235
   0    1 A
   0    5 A
   0   84 S
   1    2 A
   1    6 S
   2    3 A
   2    9 S
   3    4 A
   3    7 S
   4    5 A
   4   82 S
   5    8 S
   6   20 S
   6   21 S
   6   22 S
   7   23 S
   7   24 S
   7   25 S
   8   26 S
   8   27 S
   8   28 S
   9   15 S
   9   30 S
   9   31 S
  10   11 A
  10   15 A
  10   18 S
  11   12 A
  11   83 S
  12   13 A
  12   16 S
  13   14 A
  13   85 S
  14   15 A
  14   17 S
  16   32 S
  16   33 S
  16   34 S
  17   35 S
  17   36 S
  17   40 S
  18   45 S
  18   46 S
  18   48 S
  19   37 A
  19   41 A
  19   56 S
  29   82 S
  37   38 A
  37   86 S
  38   39 A
  38   43 S
  39   49 A
  39   58 S
  41   49 A
  41   82 S
  42   83 S
  43   60 S
  43   61 S
  43   62 S
  44   49 S
  44   63 S
  44   64 S
  44   65 S
  47   52 A
  47   55 S
  47   57 A
  50   51 A
  50   59 A
  50   87 S
  51   52 A
  51   54 S
  52   58 S
  53   59 S
  53   72 S
  53   73 S
  53   74 S
  54   75 S
  54   76 S
  54   77 S
  55   78 S
  55   79 S
  55   80 S
  56   66 S
  56   67 S
  56   68 S
  57   59 A
  57   83 S
  58   70 S
  58   71 S
  69   82 S
  81   83 S
