25
   20   21   22   23   24
O    0.0000 0.0000 0.0000
O    1.4822 1.2004 1.2110
Zn   2.6075 2.2214 -0.0289
Zn   0.2667 0.5798 -1.9603
O    2.2993 0.9641 -1.6034
Zn   3.2029 -0.7604 -1.4526
C    4.5861 -0.0822 0.8972
O    4.1604 -1.0822 -3.1403
C    1.0170 -2.3817 -1.7513
O    4.4442 -1.0168 0.0302
O    4.3047 1.1098 0.7514
O    3.9580 0.9945 -3.8623
C    0.0704 3.4760 -1.1177
O    -0.3591 2.4840 -1.6775
O    1.1626 3.6083 -0.5497
C    0.5097 0.3574 1.1010
C    4.2159 -0.1797 -4.0005
H    2.6584 1.4139 -2.4114
O    0.6233 -1.4611 -2.4876
O    2.1104 -2.3517 -1.1087
X    5.1007 -0.0085 1.2629
X    0.5843 -2.9205 -1.1831
X    -0.4171 4.0458 -1.1965
X    0.4486 0.3793 1.7513
X    4.1982 -0.7744 -4.4087
   0    3 S
   0   15 A
   1    2 S
   1   15 A
   2    4 S
   2   10 S
   2   14 S
   3    4 S
   3   13 S
   3   18 S
   4    5 S
   4   17 S
   5    7 S
   5    9 S
   5   19 S
   6    9 A
   6   10 A
   6   20 S
   7   16 S
   8   18 A
   8   19 A
   8   21 S
  11   16 D
  12   13 A
  12   14 A
  12   22 S
  15   23 S
  16   24 S
