28
   22   23   24   25   26   27
C    0.0000 0.0000 0.0000
C    0.0552 -5.3393 0.1548
C    3.5743 0.8794 -0.4402
C    3.7624 -5.0908 -0.4982
O    2.8301 -1.0597 3.0817
O    -0.8020 -2.5160 2.3488
O    3.6916 -3.1282 3.0709
C    -0.2149 -3.0273 3.3254
O    0.8967 -3.6152 3.2622
C    3.2617 -2.0852 3.6531
O    1.9918 -2.6822 0.6061
O    -0.5187 -4.2939 -0.2059
O    -0.5898 -1.0123 -0.4569
O    1.0256 -5.4441 0.9516
O    0.8194 -0.0851 0.9595
O    3.1604 -0.1383 -1.0078
O    3.6085 0.9244 0.8221
O    3.8436 -5.1107 0.7401
O    3.2616 -4.1660 -1.2362
Co   0.0346 -2.5744 0.5773
Co   2.3643 -4.2516 1.9368
Co   2.8507 -0.9527 1.0498
X    -0.1583 0.6580 -0.2864
X    -0.1627 -5.9984 -0.1239
X    3.7290 1.4769 -0.8724
X    3.9935 -5.6851 -0.9429
X    -0.4515 -2.9711 4.0714
X    3.3095 -2.1089 4.3908
   0   12 A
   0   14 A
   0   22 S
   1   11 A
   1   13 A
   1   23 S
   2   15 A
   2   16 A
   2   24 S
   3   17 S
   3   18 D
   3   25 S
   4    9 A
   4   21 S
   5    7 A
   5   19 S
   6    9 A
   6   20 S
   7    8 A
   7   26 S
   8   20 S
   9   27 S
  10   19 S
  10   20 S
  10   21 S
  11   19 S
  12   19 S
  13   20 S
  14   21 S
  15   21 S
  16   21 S
  17   20 S
