27
   23   24   25   26
Cd   0.0000 0.0000 0.0000
H    0.5764 0.0417 -3.3807
H    -2.6442 1.2749 -1.5814
H    1.5720 3.1397 0.1690
H    -1.0981 1.5300 2.5331
H    -3.0313 1.3446 -3.8937
H    -0.7044 3.7430 3.2646
C    2.2509 -1.5172 0.3257
C    -2.0848 -1.5383 0.9580
C    -1.1785 0.6554 -4.2113
C    -0.2783 0.3716 -3.2312
C    -2.0337 1.0452 -2.2439
C    0.6175 3.9839 1.7642
C    0.9471 3.0316 0.8488
C    -0.5150 2.1420 2.1422
N    -0.8010 0.6360 -2.0054
N    -2.2924 1.0884 -3.5359
N    0.2230 1.8952 1.0787
N    -0.3189 3.3804 2.5862
O    -2.1194 -0.4203 1.4610
O    -1.2405 -1.8638 0.0756
O    1.5848 -1.2986 1.3604
O    1.9086 -0.9678 -0.7996
X    2.6535 -2.1112 0.1364
X    -2.9168 -1.8427 0.6264
X    -0.7795 0.9119 -4.6091
X    1.0980 4.4174 2.3016
   0   15 S
   0   17 S
   0   19 S
   0   20 S
   0   21 S
   0   22 S
   1   10 S
   2   11 S
   3   13 S
   4   14 S
   5   16 S
   6   18 S
   7   21 A
   7   22 A
   7   23 S
   8   19 A
   8   20 A
   8   24 S
   9   10 A
   9   16 A
   9   25 S
  10   15 A
  11   15 A
  11   16 A
  12   13 A
  12   18 A
  12   26 S
  13   17 A
  14   17 A
  14   18 A
