31
   27   28   29   30
C    0.0000 0.0000 0.0000
C    -0.1783 -1.2392 0.6155
C    1.6341 -2.1249 -0.4759
C    1.8948 -0.9107 -1.0872
C    1.0728 0.1593 -0.8503
Cu   0.4425 -3.9476 1.5708
C    1.4539 -7.3186 3.9809
C    0.3237 -7.5699 4.7657
C    -0.7670 -6.7432 4.5965
C    -0.7119 -5.7122 3.7186
C    1.4270 -6.2853 3.0777
C    3.0224 -3.1702 2.2887
H    -0.8898 -1.3398 1.2057
H    2.1742 -2.8542 -0.6769
H    2.6258 -0.8214 -1.6562
H    1.2364 0.9794 -1.2565
C    -2.3981 -3.6227 1.0978
H    0.3088 -8.2681 5.3791
H    -1.5433 -6.8938 5.0872
H    -1.4522 -5.1527 3.6467
H    2.1722 -6.1515 2.5383
N    0.6170 -2.2850 0.4040
N    0.3712 -5.4547 2.9318
O    2.4061 -4.0160 1.5907
O    2.4981 -2.2753 2.9867
O    -1.4771 -3.5252 1.9714
O    -2.2428 -4.0259 -0.0677
X    -0.7037 0.2390 -0.1170
X    2.1814 -7.4431 4.3464
X    3.7965 -2.8821 2.5406
X    -3.2026 -3.7670 0.9830
   0    1 A
   0    4 A
   0   27 S
   1   12 S
   1   21 A
   2    3 A
   2   13 S
   2   21 A
   3    4 A
   3   14 S
   4   15 S
   5   21 S
   5   22 S
   5   23 S
   5   25 S
   6    7 A
   6   10 A
   6   28 S
   7    8 A
   7   17 S
   8    9 A
   8   18 S
   9   19 S
   9   22 A
  10   20 S
  10   22 A
  11   23 S
  11   24 D
  11   29 S
  16   25 S
  16   26 D
  16   30 S
