48
   42   43   44   45   46   47
Cu   0.0000 0.0000 0.0000
Cu   1.8773 -1.7408 -0.5946
H    -1.6926 -0.1969 2.3928
H    -0.1897 2.1222 5.3575
H    1.5477 2.1365 1.6956
H    2.0937 -3.7852 1.6484
H    5.8211 -3.4659 3.2088
H    6.2821 -1.6983 1.7443
H    4.6488 -0.9752 0.2328
H    -0.2982 1.8640 -2.2215
H    -4.0522 1.7842 -3.7494
H    -4.6359 0.1054 -2.2297
H    -3.0525 -0.6949 -0.7035
H    0.4649 -3.7620 -2.2248
H    2.0495 -3.9322 -5.9517
H    3.5741 -1.3570 -3.2179
C    -1.0507 0.4321 2.7000
C    -1.0965 0.8891 4.0133
C    -0.1580 1.8103 4.4619
C    0.8271 2.2753 3.5989
C    0.8738 1.8192 2.2856
C    2.9440 -3.3618 1.6679
C    3.9145 -3.7911 2.5651
C    5.1584 -3.1722 2.5944
C    5.4318 -2.1217 1.7248
C    4.4612 -1.6923 0.8276
C    -1.1795 1.5072 -2.2232
C    -2.1207 1.9818 -3.1285
C    -3.4089 1.4597 -3.1301
C    -3.7546 0.4621 -2.2280
C    -2.8145 -0.0136 -1.3211
C    1.1003 -3.4596 -2.8635
C    1.1116 -4.0030 -4.1427
C    2.0408 -3.5605 -5.0773
C    2.9587 -2.5746 -4.7327
C    2.9473 -2.0311 -3.4535
I    2.3554 0.8251 -1.0350
I    -0.4870 -2.5578 0.4366
N    -0.0656 0.8970 1.8370
N    3.2185 -2.3123 0.7984
N    -1.5254 0.5095 -1.3195
N    2.0181 -2.4736 -2.5190
X    -1.6015 0.6946 4.6285
X    1.3498 2.8042 3.6070
X    3.7576 -4.2661 3.0904
X    -1.9052 2.4775 -3.7456
X    0.5607 -4.5026 -4.1510
X    3.4406 -2.4377 -5.2557
   0    1 S
   0   36 S
   0   37 S
   0   38 S
   0   40 S
   1   36 S
   1   37 S
   1   39 S
   1   41 S
   2   16 S
   3   18 S
   4   20 S
   5   21 S
   6   23 S
   7   24 S
   8   25 S
   9   26 S
  10   28 S
  11   29 S
  12   30 S
  13   31 S
  14   33 S
  15   35 S
  16   17 A
  16   38 A
  17   18 A
  17   42 S
  18   19 A
  19   20 A
  19   43 S
  20   38 A
  21   22 A
  21   39 A
  22   23 A
  22   44 S
  23    6 S
  23   24 A
  24    7 S
  24   25 A
  25   39 A
  26   27 A
  26   40 A
  27   28 A
  27   45 S
  28   10 S
  28   29 A
  29   11 S
  29   30 A
  30   40 A
  31   32 A
  31   41 A
  32   33 A
  32   46 S
  33   34 A
  34   35 A
  34   47 S
  35   41 A
