26
   20   21   22   23   24   25
Y    0.0000 0.0000 0.0000
Y    3.5180 -2.2087 3.1835
C    3.1249 -0.0715 4.8520
C    3.2609 0.1415 0.7155
C    -2.6691 0.6622 -0.3073
C    0.3931 -2.1372 -1.6685
C    0.2571 -2.3502 2.4680
C    6.1871 -2.8709 3.4908
O    2.1753 -0.4621 4.1301
O    4.2873 -0.5180 4.6964
O    2.1139 0.6396 0.6107
O    3.5629 -0.8257 1.4352
O    -2.3692 -0.1307 0.5981
O    -1.7918 1.1797 -1.0570
O    1.3428 -1.7466 -0.9466
O    -0.7693 -1.6907 -1.5129
O    1.4041 -2.8483 2.5728
O    -0.0449 -1.3830 1.7483
O    5.8872 -2.0780 2.5854
O    5.3099 -3.3884 4.2405
X    3.0734 0.4290 5.3969
X    3.8749 0.3501 0.3109
X    -3.3498 0.9769 -0.4289
X    0.4446 -2.6377 -2.2134
X    -0.3569 -2.5588 2.8726
X    6.8678 -3.1856 3.6125
   0   10 S
   0   12 S
   0   13 S
   0   14 S
   0   15 S
   0   17 S
   1    8 S
   1    9 S
   1   11 S
   1   16 S
   1   18 S
   1   19 S
   2    8 A
   2    9 A
   2   20 S
   3   10 A
   3   11 A
   3   21 S
   4   12 A
   4   13 A
   4   22 S
   5   14 A
   5   15 A
   5   23 S
   6   16 A
   6   17 A
   6   24 S
   7   18 A
   7   19 A
   7   25 S
