83
   77   78   79   80   81   82
Zn   0.0000 0.0000 0.0000
Zn   -0.9271 5.8025 0.0000
Zn   -5.4887 2.0984 0.0000
Zn   -2.1386 2.6335 1.2137
N    -1.9421 0.0662 -0.6021
N    -2.7549 1.0121 -0.1433
N    -3.9963 0.9145 -0.7167
N    -0.1831 0.2833 2.0069
N    -0.9475 1.2686 2.4713
N    -0.9385 1.3454 3.8073
N    -0.0133 4.0875 -0.6021
N    -0.4261 2.9107 -0.1433
N    0.2791 1.8844 -0.7167
Co   -2.1386 2.6335 4.8203
N    -1.5519 4.3477 2.4713
N    -1.0808 5.5023 2.0069
N    -1.6230 4.3170 3.8073
N    -3.2347 3.9782 -0.1433
N    -4.4603 3.7472 -0.6021
N    -2.6986 5.1020 -0.7167
N    -3.9163 2.2847 2.4713
N    -5.1518 2.1153 2.0069
N    -3.8543 2.2385 3.8073
H    -5.8870 -0.5039 -2.1204
H    -3.1821 -3.2580 -3.3339
H    -1.4986 -2.2733 -2.1382
H    0.0657 0.5227 6.2906
H    1.5103 -1.9227 2.4898
H    2.4734 -2.2750 4.5737
H    2.4528 0.9562 -2.1204
H    3.4855 4.6757 -3.3339
H    1.7910 5.6413 -2.1382
H    -1.4126 5.5981 6.2906
H    -0.0171 8.0718 2.4898
H    -0.1936 9.0821 4.5737
H    -2.9816 7.4486 -2.1204
H    -6.7191 6.4832 -3.3339
H    -6.7081 4.5329 -2.1382
H    -5.0689 1.7802 6.2906
H    -7.9089 1.7518 2.4898
H    -8.6956 1.0938 4.5737
C    -3.9518 -0.1478 -1.5386
C    -2.6764 -0.7866 -1.3666
C    -5.0096 -0.8098 -2.1884
C    -3.3704 -2.4790 -2.8574
C    -2.3608 -1.9183 -2.1311
C    -4.7089 -1.9772 -2.9147
C    0.3502 -0.3633 3.0944
C    -0.1234 0.3338 4.2259
C    0.3307 0.0339 5.5447
C    1.2035 -1.0407 5.6230
C    1.2568 -1.4102 3.2205
C    1.7635 -1.6719 4.4751
C    1.1768 2.4540 -1.5386
C    1.0923 3.8780 -1.3666
C    2.2790 1.8690 -2.1884
C    2.9050 4.1232 -2.8574
C    1.9146 4.7172 -2.1311
C    3.1397 2.7131 -2.9147
C    -0.7875 6.2875 3.0944
C    -1.1544 5.5288 4.2259
C    -1.1217 6.0720 5.5447
C    -0.6275 7.3652 5.6230
C    -0.3342 7.5961 3.2205
C    -0.3609 8.1657 4.4751
C    -3.6408 5.5947 -1.5386
C    -4.8316 4.8095 -1.3666
C    -3.6852 6.8417 -2.1884
C    -5.9504 6.2567 -2.8574
C    -5.9696 5.1020 -2.1311
C    -4.8466 7.1650 -2.9147
C    -5.9784 1.9768 3.0944
C    -5.1379 2.0384 4.2259
C    -5.6247 1.7951 5.5447
C    -6.9917 1.5765 5.6230
C    -7.3384 1.7150 3.2205
C    -7.8184 1.4071 4.4751
X    -5.4022 -1.9307 -3.2779
X    1.4344 -1.3563 6.2786
X    3.4863 2.2397 -3.2779
X    -0.3966 7.6500 6.2786
X    -4.5000 7.5923 -3.2779
X    -7.4540 1.6074 6.2786
   0    4 S
   0    7 S
   0   12 S
   1   10 S
   1   15 S
   1   19 S
   2    6 S
   2   18 S
   2   21 S
   3    5 S
   3    8 S
   3   11 S
   3   14 S
   3   17 S
   3   20 S
   4    5 A
   4   42 A
   5    6 A
   6   41 A
   7    8 A
   7   47 A
   8    9 A
   9   13 S
   9   48 A
  10   11 A
  10   54 A
  11   12 A
  12   53 A
  13   16 S
  13   22 S
  14   15 A
  14   16 A
  15   59 A
  16   60 A
  17   18 A
  17   19 A
  18   66 A
  19   65 A
  20   21 A
  20   22 A
  21   71 A
  22   72 A
  23   43 S
  24   44 S
  25   45 S
  26   49 S
  27   51 S
  28   52 S
  29   55 S
  30   56 S
  31   57 S
  32   61 S
  33   63 S
  34   64 S
  35   67 S
  36   68 S
  37   69 S
  38   73 S
  39   75 S
  40   76 S
  41   42 A
  41   43 A
  42   45 A
  43   46 A
  44   45 A
  44   46 A
  46   77 S
  47   48 A
  47   51 A
  48   49 A
  49   50 A
  50   52 A
  50   78 S
  51   52 A
  53   54 A
  53   55 A
  54   57 A
  55   58 A
  56   57 A
  56   58 A
  58   79 S
  59   60 A
  59   63 A
  60   61 A
  61   62 A
  62   64 A
  62   80 S
  63   64 A
  65   66 A
  65   67 A
  66   69 A
  67   70 A
  68   69 A
  68   70 A
  70   81 S
  71   72 A
  71   75 A
  72   73 A
  73   74 A
  74   76 A
  74   82 S
  75   76 A
