35
   31   32   33   34
C    0.0000 0.0000 0.0000
C    -1.4016 0.5931 0.2722
C    -1.6692 1.2351 1.4722
C    -2.9496 1.7207 1.7353
C    -3.9612 1.5186 0.7939
C    -3.6977 0.8693 -0.4015
C    -2.4095 0.4234 -0.6556
C    0.1367 -1.4358 0.5376
C    -1.0082 -2.2197 0.7463
C    -0.8456 -3.5660 1.0434
C    0.4161 -4.1236 1.1455
C    1.5559 -3.3322 0.9981
C    1.3900 -1.9868 0.6964
C    0.3277 0.0601 -1.5062
C    0.4664 -1.0801 -2.2706
C    0.6963 -1.0001 -3.6452
C    0.7988 0.2569 -4.2305
C    0.6564 1.4097 -3.4728
C    0.4426 1.3099 -2.1186
H    -0.9942 1.3404 2.1028
H    -3.1292 2.1729 2.5292
H    -4.3754 0.7364 -1.0253
H    -2.2230 0.0021 -1.4631
H    -1.8586 -1.8460 0.6850
H    -1.5955 -4.0995 1.1773
H    2.4047 -3.6975 1.1001
H    2.1396 -1.4457 0.5988
H    0.4045 -1.9141 -1.8646
H    0.7799 -1.7696 -4.1579
H    0.7071 2.2460 -3.8789
H    0.3740 2.0821 -1.6037
X    0.3602 0.4225 0.6306
X    -4.6944 1.5732 0.7159
X    0.5911 -4.8244 1.0825
X    1.0190 0.4596 -4.7955
   0    1 S
   0    7 S
   0   13 S
   0   31 S
   1    2 A
   1    6 A
   2    3 A
   2   19 S
   3    4 A
   3   20 S
   4    5 A
   4   32 S
   5    6 A
   5   21 S
   6   22 S
   7    8 A
   7   12 A
   8    9 A
   8   23 S
   9   10 A
   9   24 S
  10   11 A
  10   33 S
  11   12 A
  11   25 S
  12   26 S
  13   14 A
  13   18 A
  14   15 A
  14   27 S
  15   16 A
  15   28 S
  16   17 A
  16   34 S
  17   18 A
  17   29 S
  18   30 S
