21
   18   19   20
O    0.0000 0.0000 0.0000
O    2.4518 -4.1429 0.0319
O    1.4111 -1.8776 4.1078
O    1.8905 0.9816 -0.6770
O    0.5072 -4.9198 -0.6218
O    0.2923 -3.7748 4.4848
C    0.7114 -1.0102 0.6752
C    1.2549 -2.0590 -0.0343
C    1.8294 -3.0789 0.7034
C    1.8781 -3.0846 2.0667
C    1.3353 -1.9947 2.7283
C    0.7438 -0.9428 2.0493
C    0.6998 0.9617 -0.6218
C    1.6879 -4.9941 -0.6326
C    0.8397 -2.8267 4.8949
H    1.2371 -2.0814 -0.9840
H    2.2686 -3.8081 2.5447
H    0.3750 -0.2017 2.5157
X    0.2563 1.3119 -1.1080
X    2.0888 -5.6849 -0.6662
X    0.9062 -2.3057 5.3776
   0    6 S
   0   12 S
   1    8 S
   1   13 S
   2   10 S
   2   14 S
   3   12 D
   4   13 D
   5   14 D
   6    7 A
   6   11 A
   7    8 A
   7   15 S
   8    9 A
   9   10 A
   9   16 S
  10   11 A
  11   17 S
  12   18 S
  13   19 S
  14   20 S
