66

C 7.2771 7.2139 11.6779
C 7.2228 7.2139 2.7495
C 4.0289 4.9655 9.3566
C 4.0289 9.4622 9.3566
C 4.0032 4.9655 5.1101
C 10.4010 5.1661 4.8866
C 10.4010 9.2615 4.8866
C 10.4290 5.1661 9.5023
C 4.0032 9.4622 5.1101
C 10.4290 9.2615 9.5023
O 5.1857 4.6701 4.7920
O 3.6118 5.8345 5.9282
O 5.1857 9.7577 4.7920
O 3.6118 8.5932 5.9282
O 9.2521 9.5199 9.8426
O 10.8125 8.5192 8.5483
O 7.1997 8.3714 3.3016
O 7.1997 6.0563 3.3016
O 7.2473 8.3714 11.1262
O 7.2473 6.0563 11.1262
O 9.2201 4.9078 4.5608
O 10.7959 5.9086 5.8358
O 5.2153 4.6701 9.6603
O 3.6275 5.8345 8.5433
O 9.2521 4.9078 9.8426
O 10.8125 5.9086 8.5483
O 9.2201 9.5199 4.5608
O 10.7959 8.5192 5.8358
O 7.3242 11.1217 8.9581
O 7.3030 11.1217 5.4686
O 7.3030 3.3059 5.4686
O 7.3242 3.3059 8.9581
O 6.1408 5.6796 7.2205
O 6.1408 8.7481 7.2205
O 8.5433 5.1723 7.2059
O 5.8340 7.2139 9.1961
O 3.6275 8.5932 8.5433
O 5.2153 9.7577 9.6603
O 8.2618 7.2139 8.6780
O 8.2440 7.2139 5.7374
O 8.5433 9.2554 7.2059
O 5.8100 7.2139 5.2489
Zr 7.2136 8.9609 8.9827
Zr 7.1921 5.4668 5.4451
Zr 4.7510 7.2139 7.2290
Zr 7.2136 5.4668 8.9827
Zr 7.1921 8.9609 5.4451
Zr 9.6610 7.2139 7.1991
H 9.1129 4.3505 7.2025
H 5.2555 7.2139 10.0107
H 9.1129 10.0772 7.2025
H 5.2215 7.2139 4.4409
H 7.3705 11.7415 8.0383
H 7.3242 11.8692 6.2890
H 7.3039 2.5672 8.1297
H 7.2628 2.8479 6.4790
X 7.3174 7.2139 12.4267
X 7.2541 7.2139 2.0002
X 3.4926 4.5735 9.7047
X 3.4926 9.8542 9.7047
X 3.4626 4.5735 4.7686
X 10.9299 4.8400 4.4668
X 10.9301 9.5873 4.4668
X 10.9631 4.8400 9.9156
X 3.4626 9.8542 4.7686
X 10.9631 9.5873 9.9156
0 19 A
0 18 A
0 56 S
1 16 A
1 17 A
1 57 S
2 23 A
2 22 A
2 58 S
3 36 A
3 37 A
3 59 S
4 11 A
4 10 A
4 60 S
5 21 A
5 20 A
5 61 S
6 27 A
6 26 A
6 62 S
7 25 A
7 24 A
7 63 S
8 13 A
8 12 A
8 64 S
9 14 A
9 15 A
9 65 S
10 43 S
11 44 S
12 46 S
13 44 S
14 42 S
15 47 S
16 46 S
17 43 S
18 42 S
19 45 S
20 43 S
21 47 S
22 45 S
23 44 S
24 45 S
25 47 S
26 46 S
27 47 S
28 42 S
28 52 S
29 46 S
29 53 S
30 43 S
30 55 S
31 45 S
31 54 S
32 43 S
32 44 S
32 45 S
33 42 S
33 44 S
33 46 S
34 43 S
34 45 S
34 47 S
34 48 S
35 42 S
35 44 S
35 45 S
35 49 S
36 44 S
37 42 S
38 42 S
38 45 S
38 47 S
39 43 S
39 46 S
39 47 S
40 42 S
40 46 S
40 47 S
40 50 S
41 43 S
41 44 S
41 46 S
41 51 S
