46
   38   39   40   41   42   43   44   45
C    0.0000 0.0000 0.0000
C    0.0000 -3.6332 -2.5691
Zr   2.1332 -1.3777 -1.9053
C    0.0000 3.7230 -5.2651
Zr   2.1332 1.4674 -5.9289
O    3.8979 -0.6521 -2.9314
C    4.2664 3.7230 -5.2651
O    0.3685 0.7419 -4.9028
O    0.3685 -0.6521 -2.9314
O    3.8979 0.7419 -4.9028
C    4.2664 -3.6332 -2.5691
Zr   0.3685 1.4890 -2.8959
C    4.2664 0.0000 0.0000
Zr   3.8976 1.4890 -2.8959
Zr   3.8979 -1.3993 -4.9383
Zr   0.3688 -1.3993 -4.9383
C    0.0000 0.0898 -7.8342
O    0.7995 -0.9463 -0.1970
O    -0.3342 0.8955 -0.8207
O    3.4669 3.2218 -6.0916
O    4.6007 3.2477 -4.1473
O    3.4669 -3.1321 -1.7426
O    4.6007 -3.1580 -3.6869
O    0.7995 1.0360 -7.6372
O    -0.3342 -0.8057 -7.0135
O    3.4669 1.0360 -7.6372
O    4.6007 -0.8057 -7.0135
O    0.7995 -3.1321 -1.7426
O    -0.3342 -3.1580 -3.6869
O    0.7995 3.2218 -6.0916
O    -0.3342 3.2477 -4.1473
O    3.4669 -0.9463 -0.1970
O    4.6007 0.8955 -0.8207
O    2.1332 0.7812 -1.9373
O    2.1332 2.1569 -3.8828
O    2.1332 -2.0671 -3.9514
O    2.1332 -0.6915 -5.8969
C    4.2664 0.0898 -7.8342
X    -0.6003 -0.5034 0.3043
X    -0.0120 -4.3523 -2.6210
X    -0.6003 4.1358 -5.5192
X    4.2785 4.4420 -5.2132
X    4.8667 -4.0461 -2.3150
X    4.2783 -0.1976 0.6104
X    -0.0118 0.2873 -8.4446
X    4.8667 0.5932 -8.1385
   0   17 A
   0   18 A
   0   38 S
   1   27 A
   1   28 A
   1   39 S
   2    5 S
   2    8 S
   2   17 S
   2   21 S
   2   27 S
   2   31 S
   2   33 S
   2   35 S
   3   29 A
   3   30 A
   3   40 S
   4    7 S
   4    9 S
   4   19 S
   4   23 S
   4   25 S
   4   29 S
   4   34 S
   4   36 S
   5   13 S
   5   14 S
   6   19 A
   6   20 A
   6   41 S
   7   11 S
   7   15 S
   8   11 S
   8   15 S
   9   13 S
   9   14 S
  10   21 A
  10   22 A
  10   42 S
  11   18 S
  11   30 S
  11   33 S
  11   34 S
  12   31 A
  12   32 A
  12   43 S
  13   20 S
  13   32 S
  13   33 S
  13   34 S
  14   22 S
  14   26 S
  14   35 S
  14   36 S
  15   24 S
  15   28 S
  15   35 S
  15   36 S
  16   23 A
  16   24 A
  16   44 S
  25   37 A
  26   37 A
  37   45 S
