14
   11   12   13
O    0.0000 0.0000 0.0000
O    -1.8668 0.7610 -0.9020
C    1.1798 2.7101 -2.3733
C    -1.2183 3.5842 0.9499
O    -1.7706 3.5515 -0.1357
O    1.8161 2.5167 -1.3410
O    -0.0157 2.4313 -2.4558
Zn   -1.9750 2.5747 -1.8710
Zn   0.8601 1.7363 0.1682
O    -0.1101 3.0166 1.2612
C    -1.1798 -0.1381 -0.4337
X    1.5224 3.0103 -2.9494
X    -1.5181 4.0413 1.4847
X    -1.4752 -0.8238 -0.3964
   0    8 S
   0   10 A
   1    7 S
   1   10 A
   2    5 A
   2    6 A
   2   11 S
   3    4 A
   3    9 A
   3   12 S
   4    7 S
   5    8 S
   6    7 S
   8    9 S
  10   13 S
