62
   54   55   56   57   58   59   60   61
O    0.0000 0.0000 0.0000
O    -1.3555 1.7336 0.0908
C    7.5699 3.1685 -1.6697
Cd   1.3084 1.7862 -0.3679
H    0.9680 0.9789 -6.3255
H    1.0700 -0.8432 -4.8675
H    1.0876 -0.4808 -2.5741
N    1.8734 2.1035 1.8487
H    0.8497 3.4101 -3.1034
O    5.2043 -0.3748 -0.9692
O    3.1419 0.2387 -0.5178
H    5.4490 2.6905 4.6849
C    -1.1529 0.5009 0.0291
Cd   5.1086 1.8832 -1.2728
H    5.5673 0.2593 1.4627
H    5.3470 4.5126 3.2269
H    5.3294 4.1502 0.9334
H    1.9754 2.2413 5.5773
H    1.7987 4.2114 4.3061
H    1.7171 4.0702 2.0023
H    2.1032 0.1657 2.1217
C    4.6142 0.3988 -4.1494
C    4.3954 2.6734 -4.2169
C    4.5694 0.3052 -5.5218
C    4.3546 2.6785 -5.6100
C    4.4538 1.4638 -6.2700
H    4.6183 -0.5420 -5.9468
H    4.6999 -0.4008 -3.6430
H    4.3138 3.5037 -3.7623
H    4.4416 1.4281 -7.2180
C    2.0624 0.9908 3.9694
N    1.0061 1.4910 -2.6447
C    1.8476 3.3642 3.8811
C    1.8027 3.2706 2.5087
C    2.0216 0.9959 2.5762
C    1.9632 2.2056 4.6294
O    6.4170 3.6694 -1.6407
O    7.7724 1.9358 -1.7315
N    4.5435 1.5659 -3.4894
C    4.0201 -0.6594 -0.6164
N    5.4109 2.1784 1.0040
O    1.2127 4.0442 -0.6714
C    2.3969 4.3288 -1.0242
O    3.2751 3.4307 -1.1228
C    5.5197 1.2665 3.2160
C    5.3837 3.6262 2.8844
C    5.3701 3.4050 1.5224
C    5.5061 1.1321 1.8352
C    5.4504 2.5543 3.7468
C    0.8973 2.4029 -4.8566
C    0.9666 1.1150 -5.3874
C    1.0332 0.0432 -4.5251
C    1.0468 0.2644 -3.1630
C    0.9109 2.5373 -3.4759
X    8.1524 3.6508 -1.6324
X    -1.7354 0.0185 -0.0083
X    4.3274 3.3284 -5.9431
X    2.0896 0.3409 4.3025
X    3.8583 -1.3740 -0.4753
X    2.5586 5.0434 -1.1654
X    5.5401 0.6540 3.6238
X    0.8769 3.0154 -5.2645
   0    3 S
   0   12 S
   1   12 D
   2   36 S
   2   37 D
   2   54 S
   3    7 S
   3   10 S
   3   31 S
   3   41 S
   3   43 S
   4   50 S
   5   51 S
   6   52 S
   7   33 A
   7   34 A
   8   53 S
   9   13 S
   9   39 D
  10   13 S
  10   39 S
  11   48 S
  12   55 S
  13   36 S
  13   38 S
  13   40 S
  13   43 S
  14   47 S
  15   45 S
  16   46 S
  17   35 S
  18   32 S
  19   33 S
  20   34 S
  21   23 A
  21   27 S
  21   38 A
  22   24 A
  22   28 S
  22   38 A
  23   25 A
  23   26 S
  24   25 A
  24   56 S
  25   29 S
  30   34 A
  30   35 A
  30   57 S
  31   52 A
  31   53 A
  32   33 A
  32   35 A
  39   58 S
  40   46 A
  40   47 A
  41   42 D
  42   43 S
  42   59 S
  44   47 A
  44   48 A
  44   60 S
  45   46 A
  45   48 A
  49   50 A
  49   53 A
  49   61 S
  50   51 A
  51   52 A
