24
   21   22   23
C    0.0000 0.0000 0.0000
C    0.7700 -1.3336 0.0000
C    2.3100 -1.3336 0.0000
C    3.0800 0.0000 0.0000
C    2.3100 1.3336 0.0000
C    0.7700 1.3336 0.0000
C    -1.5064 0.3202 0.0000
N    -1.6674 1.8518 0.0000
C    -0.2604 2.4782 0.0000
C    3.3404 2.4782 0.0000
N    4.7474 1.8518 0.0000
C    4.5864 0.3202 0.0000
C    2.7858 -2.7984 0.0000
N    1.5400 -3.7034 0.0000
C    0.2942 -2.7984 0.0000
H    -2.4286 -0.3498 0.0000
H    -0.1412 3.6118 0.0000
H    3.2212 3.6118 0.0000
H    5.5086 -0.3498 0.0000
H    3.8274 -3.2620 0.0000
H    -0.7474 -3.2620 0.0000
X    -2.3169 2.2268 0.0000
X    5.3969 2.2268 0.0000
X    1.5400 -4.4534 0.0000
   0    1 A
   0    5 A
   0    6 A
   1    2 A
   1   14 A
   2    3 A
   2   12 A
   3    4 A
   3   11 A
   4    5 A
   4    9 A
   5    8 A
   6    7 A
   6   15 S
   7    8 A
   8   16 S
   9   10 A
   9   17 S
  10   11 A
  11   18 S
  12   13 A
  12   19 S
  13   14 A
  14   20 S
  21    7 S
  22   10 S
  23   13 S
