37
   33   34   35   36
Ni   0.0000 0.0000 0.0000
H    2.9033 0.5279 1.3581
H    1.8225 -1.5093 4.5476
H    0.0331 -1.5933 2.8992
H    -2.8366 0.3734 1.4124
H    -3.3759 -3.5334 1.6269
H    -1.1870 -3.0926 0.6210
H    -2.9033 -0.5279 -1.3581
H    -1.8225 1.5093 -4.5476
H    -0.0331 1.5933 -2.8992
H    2.8366 -0.3734 -1.4124
H    3.3759 3.5334 -1.6269
H    1.1870 3.0926 -0.6210
C    2.4079 0.0008 1.9437
C    1.8311 -1.1121 3.7070
C    0.8454 -1.1528 2.7894
C    -2.6840 -0.5416 1.3455
C    -2.9994 -2.6975 1.4692
C    -1.7874 -2.4445 0.9100
C    -2.4079 -0.0008 -1.9437
C    -1.8311 1.1121 -3.7070
C    -0.8454 1.1528 -2.7894
C    2.6840 0.5416 -1.3455
C    2.9994 2.6975 -1.4692
C    1.7874 2.4445 -0.9100
N    2.8451 -0.3716 3.1630
N    1.2138 -0.4538 1.6711
N    -1.5771 -1.0749 0.8343
N    -3.5569 -1.4776 1.7532
N    -2.8451 0.3716 -3.1630
N    -1.2138 0.4538 -1.6711
N    1.5771 1.0749 -0.8343
N    3.5569 1.4776 -1.7532
X    3.3308 -0.2117 3.7357
X    -4.3213 -1.4567 1.6864
X    -3.3308 0.2117 -3.7357
X    4.3213 1.4567 -1.6864
   0   26 S
   0   27 S
   0   30 S
   0   31 S
   1   13 S
   2   14 S
   3   15 S
   4   16 S
   5   17 S
   6   18 S
   7   19 S
   8   20 S
   9   21 S
  10   22 S
  11   23 S
  12   24 S
  13   25 A
  13   26 A
  14   15 A
  14   25 A
  15   26 A
  16   27 A
  16   28 A
  17   18 A
  17   28 A
  18   27 A
  19   29 A
  19   30 A
  20   21 A
  20   29 A
  21   30 A
  22   31 A
  22   32 A
  23   24 A
  23   32 A
  24   31 A
  25   33 S
  28   34 S
  29   35 S
  32   36 S
