28
   22   23   24   25   26   27
Ga   0.0000 0.0000 0.0000
Ga   -3.2477 0.0000 0.0000
Ga   -1.6239 2.8126 0.0000
C    0.5666 2.2022 1.8852
C    -1.6239 -1.5918 1.8852
C    -3.8143 2.2022 1.8852
C    -3.8143 2.2022 -1.8852
C    -1.6239 -1.5918 -1.8852
C    0.5666 2.2022 -1.8852
O    0.8532 1.0700 1.4296
O    -2.7477 -1.2739 1.4296
O    -2.9771 3.0165 1.4296
O    -4.1009 1.0700 -1.4296
O    -0.5001 -1.2739 -1.4296
O    -0.2706 3.0165 -1.4296
O    0.8532 1.0700 -1.4296
O    -2.7477 -1.2739 -1.4296
O    -2.9771 3.0165 -1.4296
O    -4.1009 1.0700 1.4296
O    -0.5001 -1.2739 1.4296
O    -0.2706 3.0165 1.4296
O    -1.6239 0.9375 0.0000
X    1.0407 2.1704 2.5157
X    -1.8609 -1.8838 2.5157
X    -4.0514 2.5260 2.5157
X    -4.0514 2.5260 -2.5157
X    -1.8609 -1.8838 -2.5157
X    1.0407 2.1704 -2.5157
   0    9 S
   0   13 S
   0   15 S
   0   19 S
   0   21 S
   1   10 S
   1   12 S
   1   16 S
   1   18 S
   1   21 S
   2   11 S
   2   14 S
   2   17 S
   2   20 S
   2   21 S
   3    9 A
   3   20 A
   3   22 S
   4   10 A
   4   19 A
   4   23 S
   5   11 A
   5   18 A
   5   24 S
   6   12 A
   6   17 A
   6   25 S
   7   13 A
   7   16 A
   7   26 S
   8   14 A
   8   15 A
   8   27 S
