67
   61   62   63   64   65   66
H    0.0000 0.0000 0.0000
H    -0.2045 -1.6812 3.5540
H    -1.9909 -2.6973 2.9689
Zn   -4.3630 -2.5974 0.8333
C    -3.9824 -4.5294 3.1811
C    -3.7553 -4.9834 4.5467
C    -4.1356 -4.1391 5.5446
C    -4.6470 -2.9644 5.1928
C    -4.8165 -2.6564 3.9718
H    -3.8406 -2.8406 -4.1870
C    -2.4146 -4.7733 -0.0936
C    -1.9108 -5.9245 -0.8308
C    -2.8336 -6.8273 -1.2629
C    -4.1117 -6.5679 -1.0086
C    -4.4585 -5.5391 -0.3486
H    -1.7920 -4.1787 0.2573
H    -1.0039 -6.0374 -0.9995
H    -4.7664 -7.1508 -1.3205
H    -5.3631 -5.4669 -0.1480
C    -7.0638 -3.9559 1.3326
C    -8.3172 -4.6400 1.0430
H    -3.7811 -5.1186 2.4908
C    -8.1902 -3.6493 -1.0286
C    -7.1046 -3.0856 -0.6848
H    -5.2478 -1.8494 3.8090
C    -8.8607 -4.4287 -0.1871
H    -6.7108 -4.0446 2.1880
H    -3.3684 -5.8086 4.7288
H    -4.8853 -2.3542 5.8535
H    -6.7350 -2.4975 -1.3023
H    -8.7259 -5.1948 1.6666
H    -8.5215 -3.5136 -1.8874
N    -5.0649 -0.6719 1.5628
N    -2.3137 -1.9557 1.1807
N    -4.4410 -3.3695 2.8655
N    -3.6610 -4.5229 0.1038
C    -4.7435 -0.6654 -1.5145
N    -6.4123 -3.2391 0.4859
H    -4.9448 -0.0762 -0.8242
H    -5.3575 0.6138 -3.0622
C    -4.9707 -0.2114 -2.8801
C    -3.9094 -2.5384 -2.3052
C    -4.0789 -2.2304 -3.5262
N    -4.2849 -1.8253 -1.1989
H    -3.4781 -3.3454 -2.1424
C    -6.3113 -0.4215 1.7602
C    -6.8151 0.7297 2.4974
C    -4.5903 -1.0557 -3.8780
C    -4.6143 1.3731 2.6752
C    -4.2674 0.3443 2.0152
C    -5.8923 1.6325 2.9295
C    -1.6621 -1.2389 0.3340
C    -0.4088 -0.5548 0.6236
C    0.1348 -0.7661 1.8537
C    -0.5357 -1.5455 2.6952
C    -1.6214 -2.1092 2.3514
H    -6.9339 -1.0161 1.4093
H    -7.7221 0.8426 2.6661
H    -3.9595 1.9560 2.9871
H    -3.3628 0.2721 1.8146
H    -2.0151 -1.1502 -0.5214
X    -3.6803 -4.0884 5.9899
X    -3.0484 -7.5621 -1.1600
X    -9.7158 -4.5729 0.1373
X    -5.0456 -1.1064 -4.3233
X    -5.6775 2.3673 2.8266
X    0.9899 -0.6219 1.5293
   0   52 S
   1   54 S
   2   55 S
   3   32 S
   3   33 S
   3   34 S
   3   35 S
   3   37 S
   3   43 S
   4    5 A
   4   21 S
   4   34 A
   5    6 A
   5   27 S
   6    7 A
   6   61 S
   7    8 A
   7   28 S
   8   24 S
   8   34 A
   9   42 S
  10   11 A
  10   15 S
  10   35 A
  11   12 A
  11   16 S
  12   13 A
  12   62 S
  13   14 A
  13   17 S
  14   18 S
  14   35 A
  19   20 A
  19   26 S
  19   37 A
  20   25 A
  20   30 S
  22   23 A
  22   25 A
  22   31 S
  23   29 S
  23   37 A
  25   63 S
  32   45 A
  32   49 A
  33   51 A
  33   55 A
  36   38 S
  36   40 A
  36   43 A
  39   40 S
  40   47 A
  41   42 A
  41   43 A
  41   44 S
  42   47 A
  45   46 A
  45   56 S
  46   50 A
  46   57 S
  47   64 S
  48   49 A
  48   50 A
  48   58 S
  49   59 S
  50   65 S
  51   52 A
  51   60 S
  52   53 A
  53   54 A
  53   66 S
  54   55 A
