51
   39   40   41   42   43   44   45   46   47   48   49   50
Nd   0.0000 0.0000 0.0000
O    -1.2480 1.9232 -1.2510
C    -0.9961 1.5024 -2.4010
O    -0.4443 0.3716 -2.5702
Nd   1.3026 1.8421 3.1906
Nd   -1.3026 -1.8421 -3.1906
C    -0.7530 2.5861 5.0671
C    3.1692 0.3218 4.7731
C    0.9961 -1.5024 2.4010
O    1.5842 4.0670 2.0865
O    3.1132 3.5104 3.5680
O    1.5120 1.8583 -1.0400
O    2.1257 1.2228 0.9633
C    -2.6892 -4.3122 -2.6652
O    -2.2292 0.8156 1.0893
O    -0.4985 2.0784 1.5406
O    -0.7416 1.4181 4.5654
O    0.2207 3.3801 4.8241
C    -2.3366 -1.8826 0.1006
O    3.3064 0.3824 3.5108
O    2.2719 1.0374 5.3393
O    1.2480 -1.9232 1.2510
O    0.4443 -0.3716 2.5702
C    1.7485 -1.8602 -1.5800
C    2.6892 4.3122 2.6652
O    -1.5842 -4.0670 -2.0865
O    -3.1132 -3.5104 -3.5680
O    -1.5120 -1.8583 1.0400
O    -2.1257 -1.2228 -0.9633
C    2.3366 1.8826 -0.1006
C    0.7530 -2.5861 -5.0671
O    2.2292 -0.8156 -1.0893
O    0.4985 -2.0784 -1.5406
C    -3.1692 -0.3218 -4.7731
O    0.7416 -1.4181 -4.5654
O    -0.2207 -3.3801 -4.8241
C    -1.7485 1.8602 1.5800
O    -3.3064 -0.3824 -3.5108
O    -2.2719 -1.0374 -5.3393
X    -1.4012 1.7012 -2.8944
X    -0.9938 3.1317 5.3294
X    3.6771 -0.0746 5.1204
X    1.4012 -1.7012 2.8944
X    -3.1829 -4.6266 -2.0645
X    -3.0674 -2.0211 0.5904
X    1.8160 -2.5716 -1.5890
X    3.1829 4.6266 2.0645
X    3.0674 2.0211 -0.5904
X    0.9938 -3.1317 -5.3294
X    -3.6771 0.0746 -5.1204
X    -1.8160 2.5716 1.5890
   0    1 S
   0    3 S
   0   11 S
   0   12 S
   0   14 S
   0   15 S
   0   21 S
   0   22 S
   0   27 S
   0   28 S
   0   31 S
   0   32 S
   1    2 D
   2    3 S
   2   39 S
   3    5 S
   4    9 S
   4   10 S
   4   12 S
   4   15 S
   4   16 S
   4   17 S
   4   19 S
   4   20 S
   4   22 S
   5   25 S
   5   26 S
   5   28 S
   5   32 S
   5   34 S
   5   35 S
   5   37 S
   5   38 S
   6   16 A
   6   17 A
   6   40 S
   7   19 A
   7   20 A
   7   41 S
   8   21 D
   8   22 S
   8   42 S
   9   24 A
  10   24 A
  11   29 D
  12   29 S
  13   25 A
  13   26 A
  13   43 S
  14   36 D
  15   36 S
  18   27 D
  18   28 S
  18   44 S
  23   31 D
  23   32 S
  23   45 S
  24   46 S
  29   47 S
  30   34 A
  30   35 A
  30   48 S
  33   37 A
  33   38 A
  33   49 S
  36   50 S
