68
   60   61   62   63   64   65   66   67
C    0.0000 0.0000 0.0000
C    0.0000 6.3575 5.2193
C    3.2457 0.0000 5.2193
C    3.2457 6.3575 0.0000
Cu   3.7535 3.1788 2.6097
Cu   -0.5078 3.1788 2.6097
Cu   1.6229 5.3094 2.6097
Cu   1.6229 1.0481 2.6097
H    5.5874 4.3094 -0.2074
C    4.4234 5.9793 -0.5652
H    5.5874 2.0481 5.4268
C    -1.1777 5.9793 5.7845
H    -2.3417 4.3094 5.4268
C    4.4234 0.3782 5.7845
H    -2.3417 2.0481 -0.2074
C    -1.1777 0.3782 -0.5652
H    2.7535 7.1433 5.4268
H    2.7535 -0.7858 -0.2074
H    0.4922 7.1433 -0.2074
H    0.4922 -0.7858 5.4268
H    -2.3417 2.0481 5.4268
H    5.5874 2.0481 -0.2074
C    4.4234 5.9793 5.7845
C    4.4234 0.3782 -0.5652
H    5.5874 4.3094 5.4268
C    -1.1777 5.9793 -0.5652
H    -2.3417 4.3094 -0.2074
C    -1.1777 0.3782 5.7845
H    0.4922 -0.7858 -0.2074
H    0.4922 7.1433 5.4268
H    2.7535 -0.7858 5.4268
H    2.7535 7.1433 -0.2074
N    3.8577 4.4520 0.9146
N    -0.6120 4.4520 4.3047
N    3.8577 1.9055 4.3047
N    -0.6120 1.9055 0.9146
C    4.8016 4.8016 0.0000
C    -1.5559 4.8016 5.2193
C    4.8016 1.5559 5.2193
C    -1.5559 1.5559 0.0000
N    2.8961 5.4136 4.3047
N    2.8961 0.9439 0.9146
N    0.3496 5.4136 0.9146
N    0.3496 0.9439 4.3047
C    3.2457 6.3575 5.2193
C    3.2457 0.0000 0.0000
C    0.0000 6.3575 0.0000
C    0.0000 0.0000 5.2193
N    -0.6120 1.9055 4.3047
N    3.8577 1.9055 0.9146
N    -0.6120 4.4520 0.9146
N    3.8577 4.4520 4.3047
C    -1.5559 1.5559 5.2193
C    4.8016 1.5559 0.0000
C    -1.5559 4.8016 0.0000
C    4.8016 4.8016 5.2193
N    0.3496 0.9439 0.9146
N    0.3496 5.4136 4.3047
N    2.8961 0.9439 4.3047
N    2.8961 5.4136 0.9146
X    4.7860 6.3419 -1.0778
X    -1.5401 6.3419 6.2971
X    4.7860 0.0158 6.2971
X    -1.5401 0.0158 -1.0778
X    4.7860 6.3419 6.2971
X    4.7860 0.0158 -1.0778
X    -1.5401 6.3419 -1.0778
X    -1.5401 0.0158 6.2971
   0   15 A
   0   28 S
   0   56 A
   1   11 A
   1   29 S
   1   57 A
   2   13 A
   2   30 S
   2   58 A
   3    9 A
   3   31 S
   3   59 A
   4   32 S
   4   34 S
   4   49 S
   4   51 S
   5   33 S
   5   35 S
   5   48 S
   5   50 S
   6   40 S
   6   42 S
   6   57 S
   6   59 S
   7   41 S
   7   43 S
   7   56 S
   7   58 S
   8   36 S
   9   36 A
   9   60 S
  10   38 S
  11   37 A
  11   61 S
  12   37 S
  13   38 A
  13   62 S
  14   39 S
  15   39 A
  15   63 S
  16   44 S
  17   45 S
  18   46 S
  19   47 S
  20   52 S
  21   53 S
  22   44 A
  22   55 A
  22   64 S
  23   45 A
  23   53 A
  23   65 S
  24   55 S
  25   46 A
  25   54 A
  25   66 S
  26   54 S
  27   47 A
  27   52 A
  27   67 S
  32   36 A
  32   59 A
  33   37 A
  33   57 A
  34   38 A
  34   58 A
  35   39 A
  35   56 A
  40   44 A
  40   51 A
  41   45 A
  41   49 A
  42   46 A
  42   50 A
  43   47 A
  43   48 A
  48   52 A
  49   53 A
  50   54 A
  51   55 A
