28
   22   23   24   25   26   27
Zn   0.0000 0.0000 0.0000
Zn   1.7351 -3.0052 0.0000
Zn   -1.7351 -3.0052 0.0000
C    -2.2440 -0.6522 -1.9062
C    -0.0483 -4.6225 -1.9062
O    -1.6563 0.1413 1.2449
O    -2.3233 -1.9732 1.6960
O    2.6856 -1.6414 1.2449
O    1.1879 -0.0066 1.6960
O    -1.0292 -4.5103 1.2449
O    1.1354 -4.0307 1.6960
O    1.6563 0.1413 -1.2449
O    2.3233 -1.9732 -1.6960
O    -2.6856 -1.6414 -1.2449
O    -1.1879 -0.0066 -1.6960
O    1.0292 -4.5103 -1.2449
O    -1.1354 -4.0307 -1.6960
O    0.0000 -2.0034 0.0000
C    -2.2923 -0.7358 1.9062
C    2.2440 -0.6522 1.9062
C    0.0483 -4.6225 1.9062
C    2.2923 -0.7358 -1.9062
X    -2.5392 -0.2793 -2.4839
X    -0.3084 -4.9734 -2.4839
X    -2.5524 -0.3501 2.4839
X    2.7994 -0.7046 2.4839
X    -0.2468 -4.9559 2.4839
X    2.8478 -0.7579 -2.4839
   0    5 S
   0    8 S
   0   11 S
   0   14 S
   0   17 S
   1    7 S
   1   10 S
   1   12 S
   1   15 S
   1   17 S
   2    6 S
   2    9 S
   2   13 S
   2   16 S
   2   17 S
   3   13 A
   3   14 A
   3   22 S
   4   15 A
   4   16 A
   4   23 S
   5   18 A
   6   18 A
   7   19 A
   8   19 A
   9   20 A
  10   20 A
  11   21 A
  12   21 A
  18   24 S
  19   25 S
  20   26 S
  21   27 S
