18
   14   15   16   17
Mn   0.0000 0.0000 0.0000
O    -0.0384 -0.2856 2.1064
C    -0.2946 -0.3417 3.3058
O    -0.3330 -1.4375 3.9484
O    -0.0210 -1.5945 -1.4446
O    -0.3156 -2.7465 0.3974
Mn   -0.3540 -3.0321 2.5038
C    -0.8645 -5.4252 3.4044
C    -0.0594 -2.6904 -0.8020
O    -0.3709 -5.2502 2.2730
O    0.0169 2.2181 0.2308
O    0.7338 1.4373 -1.6671
O    -1.0878 -4.4694 4.1709
C    0.5105 2.3932 -0.9006
X    -0.3319 0.4939 3.2758
X    -0.9224 -5.9946 3.9456
X    -0.0221 -3.5259 -0.7720
X    0.5684 2.9625 -1.4417
   0    1 S
   0    4 S
   0   10 S
   0   11 S
   1    2 A
   2    3 A
   2   14 S
   3    6 S
   4    8 A
   5    6 S
   5    8 A
   6    9 S
   6   12 S
   7    9 A
   7   12 A
   7   15 S
   8   16 S
  10   13 A
  11   13 A
  13   17 S
