27
   21   22   23   24   25   26
Cd   0.0000 0.0000 0.0000
O    5.1573 -0.2675 -4.2959
O    3.5432 -0.7299 -2.8383
Cd   6.3775 -0.3719 -2.4118
Cd   3.2419 0.5046 -0.9868
C    5.3892 2.5993 -2.2587
O    1.2141 1.4660 -1.6088
O    -0.8990 1.0174 -1.8609
O    1.9359 -1.2792 -0.2662
O    0.2832 -2.1978 -1.4246
O    4.2286 2.2036 -2.0176
O    6.4259 1.8738 -2.2830
O    7.3614 -0.5748 -0.1044
O    5.2107 -0.5562 -0.3862
O    3.0067 1.4743 0.9847
O    1.0447 0.8054 1.7695
C    3.9456 -0.3969 -3.9876
C    6.2156 -0.5984 0.3779
C    0.1502 1.5979 -2.2072
C    2.1667 1.3511 1.8794
C    1.4505 -2.2453 -0.9640
X    5.4836 3.3135 -2.5344
X    3.4347 -0.3662 -4.5309
X    6.1150 -0.5338 1.0985
X    0.1149 2.0049 -2.8716
X    2.3332 1.7303 2.4742
X    1.8319 -2.8776 -0.9005
   0    6 S
   0    7 S
   0    8 S
   0    9 S
   0   15 S
   1    3 S
   1   16 A
   2    4 S
   2   16 A
   3   11 S
   3   12 S
   3   13 S
   4    6 S
   4    8 S
   4   10 S
   4   13 S
   4   14 S
   5   10 A
   5   11 A
   5   21 S
   6   18 S
   7   18 D
   8   20 S
   9   20 D
  12   17 D
  13   17 S
  14   19 A
  15   19 A
  16   22 S
  17   23 S
  18   24 S
  19   25 S
  20   26 S
