16
   12   13   14   15
C    0.0000 0.0000 0.0000
C    0.7089 -0.9303 -1.0021
C    0.3764 -2.4311 -0.9137
C    -0.6307 -2.8593 0.1701
C    -1.4703 -0.4027 -0.2152
C    -1.8027 -1.9035 -0.1213
C    0.3119 -0.7042 1.3339
C    -0.0174 -2.2062 1.4222
H    1.4406 -0.4981 -1.7619
H    -0.8759 -3.9707 0.2359
H    -2.2541 0.3961 -0.4325
H    0.7652 -0.1142 2.1975
X    0.1613 0.7312 -0.0419
X    0.6904 -2.9303 -1.3770
X    -2.5025 -2.1570 -0.2132
X    0.1147 -2.6012 2.0459
   0    1 S
   0    4 S
   0    6 S
   1    2 D
   1    8 S
   2    3 S
   3    5 S
   3    7 S
   3    9 S
   4    5 D
   4   10 S
   6    7 D
   6   11 S
  12    0 S
  13    2 S
  14    5 S
  15    7 S
