42
   36   37   38   39   40   41
H    0.0000 0.0000 0.0000
H    -2.4607 1.7718 3.0688
H    -2.4607 -3.5592 0.0000
H    -2.4607 -3.5514 6.1512
H    0.0000 -5.3310 3.0688
C    -1.2304 -0.5616 2.3701
C    -1.2304 0.7137 1.6338
C    -1.2304 3.1675 0.2171
C    -1.2304 -2.9975 2.3701
C    -1.2304 -4.2729 1.6338
H    0.0000 -0.0078 6.1512
C    -1.2304 -1.7796 4.4797
C    -1.2304 -1.7796 5.9524
C    -1.2304 -6.7267 0.2171
C    -1.2304 -1.7796 8.7857
H    -1.2304 4.1102 -0.3271
H    -1.2304 -7.6694 -0.3271
H    -1.2304 -1.7796 9.8743
C    -1.2304 -1.7796 1.6811
C    -1.2304 -2.9853 3.7694
C    -1.2304 -0.5739 3.7694
H    -1.2304 -1.7796 0.5887
H    -1.2304 -3.9314 4.3157
H    -1.2304 0.3722 4.3157
C    -1.9020 1.8320 2.1347
C    -1.9122 3.0421 1.4283
C    -1.9020 -4.3983 0.4150
C    -1.9122 -5.6151 -0.2799
C    -1.9020 -2.7725 6.6703
C    -1.9122 -2.7658 8.0716
C    -0.5588 -5.3911 2.1347
C    -0.5485 -6.6013 1.4283
C    -0.5588 0.8391 0.4150
C    -0.5485 2.0559 -0.2799
C    -0.5588 -0.7867 6.6703
C    -0.5485 -0.7934 8.0716
X    -2.3243 3.7543 1.3443
X    -2.3243 -6.0128 -0.6977
X    -2.3243 -3.0799 8.5732
X    -0.1365 -6.9989 1.8992
X    -0.1365 1.7418 -0.7394
X    -0.1365 -0.0811 8.0600
   0   32 S
   1   24 S
   2   26 S
   3   28 S
   4   30 S
   5    6 S
   5   18 A
   5   20 A
   6   24 A
   6   32 A
   7   15 S
   7   25 A
   7   33 A
   8    9 S
   8   18 A
   8   19 A
   9   26 A
   9   30 A
  10   34 S
  11   12 S
  11   19 A
  11   20 A
  12   28 A
  12   34 A
  13   16 S
  13   27 A
  13   31 A
  14   17 S
  14   29 A
  14   35 A
  18   21 S
  19   22 S
  20   23 S
  24   25 A
  25   36 S
  26   27 A
  27   37 S
  28   29 A
  29   38 S
  30   31 A
  31   39 S
  32   33 A
  33   40 S
  34   35 A
  35   41 S
