61
   57   58   59   60
Co   0.0000 0.0000 0.0000
C    2.0034 -2.3344 2.8809
C    0.9217 -3.1694 2.8441
C    0.0427 -2.6398 1.9000
C    -1.2968 -3.1414 1.4731
C    3.2481 -2.3595 3.6978
C    1.3969 3.1696 2.4574
C    0.7625 2.4844 3.4735
C    0.0652 1.4387 2.8575
C    -0.7788 0.4046 3.5304
C    2.3536 4.3139 2.4741
H    -3.7863 -1.5206 -3.5974
H    -2.2480 -0.7243 -1.8296
H    2.0189 -2.5316 -1.4882
N    -1.7611 -1.3496 -1.9987
N    -0.5645 -1.4955 -1.3676
N    -0.2764 1.4474 -1.5233
N    -1.0716 2.5453 -1.3057
H    -3.0897 -2.6949 -4.4594
H    -3.9548 -2.9442 -3.5053
H    1.6446 -3.8527 -2.1996
H    -1.5134 2.9860 -0.3750
H    1.2378 -3.5541 -0.7550
H    1.3861 -0.0004 -2.9462
H    -0.0707 -0.0990 -3.7664
H    1.0196 0.6481 -4.2602
N    1.7611 -1.3496 1.9987
N    0.5645 -1.4955 1.3676
N    0.2764 1.4474 1.5233
N    1.0716 2.5453 1.3057
H    -2.3093 4.6174 -3.2642
H    -3.3390 4.0791 -2.4524
H    -2.0966 4.8957 -1.6572
H    2.2480 -0.7243 1.8296
H    -2.0189 -2.5316 1.4882
H    -1.6446 -3.8527 2.1996
H    -1.2378 -3.5541 0.7550
H    3.7863 -1.5206 3.5974
H    3.0897 -2.6949 4.4594
H    3.9548 -2.9442 3.5053
H    1.5134 2.9860 0.3750
H    -1.3861 -0.0004 2.9462
H    0.0707 -0.0990 3.7664
H    -1.0196 0.6481 4.2602
H    2.3093 4.6174 3.2642
H    3.3390 4.0791 2.4524
H    2.0966 4.8957 1.6572
C    -2.0034 -2.3344 -2.8809
C    -0.9217 -3.1694 -2.8441
C    -0.0427 -2.6398 -1.9000
C    1.2968 -3.1414 -1.4731
C    -3.2481 -2.3595 -3.6978
C    -1.3969 3.1696 -2.4574
C    -0.7625 2.4844 -3.4735
C    -0.0652 1.4387 -2.8575
C    0.7788 0.4046 -3.5304
C    -2.3536 4.3139 -2.4741
X    0.8421 -3.4943 3.4576
X    0.8421 3.0052 3.9454
X    -0.8421 -4.0152 -2.8724
X    -0.8421 2.1596 -4.0435
   0   15 S
   0   16 S
   0   27 S
   0   28 S
   1    2 A
   1    5 S
   1   26 A
   2    3 A
   2   57 S
   3    4 S
   3   27 A
   4   34 S
   4   35 S
   4   36 S
   5   37 S
   5   38 S
   5   39 S
   6    7 A
   6   10 S
   6   29 A
   7    8 A
   7   58 S
   8    9 S
   8   28 A
   9   41 S
   9   42 S
   9   43 S
  10   44 S
  10   45 S
  10   46 S
  11   51 S
  12   14 S
  13   50 S
  14   15 A
  14   47 A
  15   49 A
  16   17 A
  16   54 A
  17   21 S
  17   52 A
  18   51 S
  19   51 S
  20   50 S
  22   50 S
  23   55 S
  24   55 S
  25   55 S
  26   27 A
  26   33 S
  28   29 A
  29   40 S
  30   56 S
  31   56 S
  32   56 S
  39    5 S
  47   48 A
  47   51 S
  48   49 A
  48   59 S
  49   50 S
  51   19 S
  52   53 A
  52   56 S
  53   54 A
  53   60 S
  54   55 S
