34
   31   32   33
Cl   0.0000 0.0000 0.0000
Cl   2.5347 -1.7487 -2.9473
Cl   1.7696 -0.8353 2.3746
Cl   0.5545 -3.8207 -4.0655
Cl   6.1233 0.9693 -0.1580
Cl   -1.4241 1.9392 -2.9702
Cl   4.4320 1.5834 -2.6983
Cl   -3.3012 -0.1405 -4.2603
Cl   1.8582 1.0834 -5.5381
Cl   1.1570 3.5259 -0.7326
Cl   1.5954 6.2571 -2.0929
Cl   2.1558 3.8209 -6.8713
C    1.4590 1.0821 -2.4605
C    2.2603 0.7925 -1.2529
C    1.6724 0.2517 -0.1144
C    2.4548 -0.0636 0.9895
C    3.8267 0.1594 0.9549
C    4.4146 0.7002 -0.1809
C    3.6322 1.0155 -1.2848
C    0.5299 0.0492 -3.0430
C    0.9218 -1.2810 -3.2612
C    0.0508 -2.2011 -3.8251
C    -1.2717 -1.8756 -4.1549
C    -1.6985 -0.5864 -3.8863
C    -0.7999 0.3568 -3.3463
C    1.5403 2.3892 -3.1468
C    1.5156 3.5298 -2.3940
C    1.6782 2.4841 -4.5220
C    1.6825 4.8266 -3.0058
C    1.8683 3.7527 -5.1391
C    1.9642 4.9266 -4.4023
X    4.2854 -0.0610 1.5774
X    -1.7297 -2.3754 -4.4701
X    2.1442 5.5891 -4.7321
   0   14 S
   1   20 S
   2   15 S
   3   21 S
   4   17 S
   5   24 S
   6   18 S
   7   23 S
   8   27 S
   9   26 S
  10   28 S
  11   29 S
  12   13 A
  12   19 S
  12   25 S
  13   14 A
  13   18 A
  14   15 A
  15   16 A
  16   17 A
  16   31 S
  17   18 A
  19   20 A
  19   24 A
  20   21 A
  21   22 A
  22   23 A
  22   32 S
  23   24 A
  25   26 A
  25   27 A
  26   28 A
  27   29 A
  28   30 A
  29   30 A
  30   33 S
