31
   25   26   27   28   29   30
C    0.0000 0.0000 0.0000
O    0.7276 6.1554 -0.9679
O    -0.0045 5.1808 0.9409
O    1.2621 5.9802 -3.8356
In   1.2156 4.4689 -2.2728
In   2.5960 1.5852 -0.7696
In   -0.2877 3.0885 0.6108
O    4.2825 2.8902 -1.2576
O    3.3079 4.7990 -1.9897
O    4.1073 0.0225 -0.7231
C    2.1671 2.1850 2.3355
C    1.9852 1.8729 -3.8581
O    1.0173 2.6005 2.2973
O    2.9261 1.8684 1.3227
O    -1.8504 3.1350 2.1222
O    1.1902 3.0631 -0.7950
O    -1.8886 3.5077 -0.8062
O    -0.8758 4.2106 -2.6589
O    1.1790 -0.0157 -0.3503
O    -0.6737 0.9971 0.3526
C    0.3121 6.1936 0.1819
C    -1.8729 3.8581 -1.9852
O    1.6348 3.0519 -3.8738
O    2.3377 1.1992 -2.8610
C    4.3207 4.0400 -1.6730
X    -0.3874 -0.6445 0.0079
X    2.5264 2.0829 2.9856
X    1.9930 1.4855 -4.5026
X    0.2100 6.8437 0.5412
X    -2.5174 3.8659 -2.3726
X    4.9708 4.3993 -1.7752
   0   18 A
   0   19 A
   0   25 S
   1    4 S
   1   20 A
   2    6 S
   2   20 A
   3    4 S
   4    8 S
   4   15 S
   4   17 S
   4   22 S
   5    7 S
   5    9 S
   5   13 S
   5   15 S
   5   18 S
   5   23 S
   6   12 S
   6   14 S
   6   15 S
   6   16 S
   6   19 S
   7   24 A
   8   24 A
  10   12 A
  10   13 A
  10   26 S
  11   22 A
  11   23 A
  11   27 S
  16   21 A
  17   21 A
  20   28 S
  21   29 S
  24   30 S
