67
   59   60   61   62   63   64   65   66
Cu   0.0000 0.0000 0.0000
Cu   -3.3594 2.5376 -4.8536
N    -5.0402 2.1536 -3.8503
N    -7.1492 1.5415 -3.3704
N    -6.4971 2.0192 -2.2632
H    -1.7604 4.7574 -6.6231
H    -0.5594 1.2329 -5.5311
H    -0.2578 1.5890 2.8326
H    0.4859 3.0490 -0.6848
C    -4.1833 5.3056 -3.7973
C    -2.1663 4.8450 -3.3959
C    -1.2309 3.9991 -6.5239
C    -0.6153 2.0771 -5.9166
H    1.6981 -2.6771 -0.7516
H    -2.0204 -1.8898 -1.5323
H    -6.3987 1.4059 -5.1651
H    -4.6249 2.6832 -1.9590
C    -6.2472 1.6500 -4.2803
C    -5.2527 2.3554 -2.5614
C    -0.0646 2.1946 2.1534
C    0.3423 2.9501 0.2284
H    -1.5990 -2.2198 1.7695
H    -2.8000 1.3047 0.6775
I    -1.6797 1.2688 -2.4268
N    0.0901 1.8064 0.8414
N    0.0778 3.4537 2.3709
N    0.3590 3.9304 1.1167
C    0.8239 -2.7680 -1.0563
C    -1.1931 -2.3074 -1.4577
N    -0.1222 -1.7823 -0.8879
N    0.4112 -3.8231 -1.6644
N    -0.9039 -3.5188 -1.9039
H    3.0393 1.1317 0.3115
H    1.2655 -0.1455 -2.8946
N    -1.7130 -0.3597 0.9568
N    -3.3008 -1.3655 2.1897
N    -3.6825 -0.1068 1.8032
C    -2.1285 -1.4614 1.6703
C    -2.7441 0.4605 1.0630
N    1.6808 0.3840 -1.0033
N    3.7898 0.9961 -1.4832
N    3.1377 0.5184 -2.5904
H    -3.1016 0.9486 -7.6862
H    -3.8453 -0.5113 -4.1688
N    -3.4495 0.7312 -5.6950
N    -3.4372 -0.9160 -7.2245
N    -3.7184 -1.3927 -5.9703
C    2.8878 0.8877 -0.5733
C    1.8933 0.1822 -2.2922
N    -3.2371 4.3198 -3.9657
N    -3.7706 6.3607 -3.1892
N    -2.4555 6.0565 -2.9497
H    -5.0575 5.2147 -4.1020
H    -1.3390 4.4274 -3.3213
N    -1.6464 2.8973 -5.8104
N    -0.0586 3.9032 -7.0433
N    0.3231 2.6445 -6.6568
C    -3.2948 0.3431 -7.0070
C    -3.7016 -0.4124 -5.0820
X    -7.1666 1.7433 -2.0404
X    0.7274 4.6428 1.5426
X    -1.2722 -3.6034 -2.4871
X    -4.3521 0.2453 1.8687
X    3.8072 0.7943 -2.8132
X    -4.0868 -2.1052 -6.3962
X    -2.0872 6.1410 -2.3665
X    0.9926 2.2926 -6.7223
   0   24 S
   0   29 S
   0   34 S
   0   39 S
   0   23 S
   1    2 S
   1   44 S
   1   49 S
   1   54 S
   1   23 S
   2   17 A
   2   18 A
   3    4 A
   3   17 A
   4   18 A
   4   59 S
   5   11 S
   6   12 S
   7   19 S
   8   20 S
   9   49 A
   9   50 A
   9   52 S
  10   49 A
  10   51 A
  10   53 S
  11   54 A
  11   55 A
  12   54 A
  12   56 A
  13   27 S
  14   28 S
  15   17 S
  16   18 S
  19   24 A
  19   25 A
  20   24 A
  20   26 A
  21   37 S
  22   38 S
  25   26 A
  26   60 S
  27   29 A
  27   30 A
  28   29 A
  28   31 A
  30   31 A
  31   61 S
  32   47 S
  33   48 S
  34   37 A
  34   38 A
  35   36 A
  35   37 A
  36   38 A
  36   62 S
  39   47 A
  39   48 A
  40   41 A
  40   47 A
  41   48 A
  41   63 S
  42   57 S
  43   58 S
  44   57 A
  44   58 A
  45   46 A
  45   57 A
  46   58 A
  46   64 S
  50   51 A
  51   65 S
  55   56 A
  56   66 S
