34
   26   27   28   29   30   31   32   33
O    0.0000 0.0000 0.0000
Nd   4.8437 4.4325 -2.0125
O    1.0847 1.7636 0.8538
Nd   3.4721 1.6256 0.6026
O    4.3266 0.4182 2.7131
O    2.9264 2.0876 2.9939
C    5.8345 4.0890 1.2933
C    2.7038 5.1411 -0.1123
C    8.2057 4.8112 -1.6388
C    4.5810 4.8195 -4.8729
C    2.4813 1.9691 -2.7032
C    5.6119 0.9170 -1.2976
C    0.1101 1.2470 0.2289
C    3.7347 1.2386 3.4630
O    5.8149 4.7213 0.2120
O    5.2976 2.9618 1.4956
O    2.9753 5.8610 -1.0813
O    3.1049 3.9337 -0.0562
O    8.3157 6.0581 -1.4099
O    7.2310 4.2945 -2.2637
O    5.3893 3.9705 -4.4038
O    3.9891 5.6399 -4.1230
O    2.5008 1.3368 -1.6219
O    3.0181 3.0963 -2.9055
O    5.3404 0.1971 -0.3286
O    5.2108 2.1244 -1.3537
X    6.2093 4.5373 1.7607
X    2.2997 5.5585 0.3481
X    8.7364 4.4249 -1.2933
X    4.4721 4.6418 -5.5628
X    2.1064 1.5208 -3.1706
X    6.0161 0.4997 -1.7580
X    -0.4207 1.6332 -0.1166
X    3.8436 1.4163 4.1529
   0   12 D
   1   14 S
   1   16 S
   1   17 S
   1   19 S
   1   20 S
   1   21 S
   1   23 S
   1   25 S
   2   12 S
   2    3 S
   3    4 S
   3    5 S
   3   15 S
   3   17 S
   3   22 S
   3   24 S
   3   25 S
   4   13 A
   5   13 A
   6   14 A
   6   15 A
   6   26 S
   7   16 D
   7   17 S
   7   27 S
   8   18 D
   8   19 S
   8   28 S
   9   20 A
   9   21 A
   9   29 S
  10   22 A
  10   23 A
  10   30 S
  11   24 D
  11   25 S
  11   31 S
  12   32 S
  13   33 S
