22
   19   20   21
N    0.0000 0.0000 0.0000
N    0.8000 0.9326 -0.1130
N    3.8575 6.6813 0.0000
N    3.4498 5.5223 -0.1130
C    2.7806 7.5384 0.1162
O    2.7806 2.8488 -1.3534
Cu   2.7806 1.0303 -0.7505
N    0.1308 2.0917 -0.1130
Cu   4.3555 3.7581 -0.7505
N    -1.0769 1.8652 0.0000
Cu   1.2057 3.7581 -0.7505
N    2.1114 5.5223 -0.1130
C    -1.2807 0.5040 0.1162
N    1.7038 6.6813 0.0000
C    6.8419 0.5040 0.1162
N    6.6381 1.8652 0.0000
N    5.4305 2.0917 -0.1130
N    5.5612 0.0000 0.0000
N    4.7613 0.9326 -0.1130
X    2.4229 8.0491 0.1014
X    -1.6384 0.0153 -0.2317
X    7.6378 0.5923 0.3451
   0    1 A
   0   12 A
   1    6 S
   1    7 A
   2    3 A
   2    4 A
   3    8 S
   3   11 A
   4   13 A
   4   19 S
   5    6 S
   5    8 S
   5   10 S
   6   18 S
   7    9 A
   7   10 S
   8   16 S
   9   12 A
  10   11 S
  11   13 A
  12   20 S
  14   15 A
  14   17 A
  14   21 S
  15   16 A
  16   18 A
  17   18 A
