58
   50   51   52   53   54   55   56   57
Yb   0.0000 0.0000 0.0000
O    1.8133 -0.9594 0.8116
Yb   2.5612 4.4969 0.4439
O    3.9922 -0.7717 1.2471
O    -1.2447 -0.6221 -1.9039
O    0.0484 -2.1792 -1.0386
O    -1.5910 1.5876 -0.1477
O    3.8933 5.5398 -0.9819
O    5.8376 6.1472 -0.0624
H    -2.3445 3.5485 -1.6452
H    -3.7251 0.1560 -0.3989
O    0.5811 1.4424 1.5889
O    1.3255 3.5037 1.9821
O    0.7479 5.4564 -0.3677
H    -4.6133 0.9032 -2.6577
H    -5.5693 1.2725 -1.4525
H    -4.8813 3.4295 -1.4382
O    3.8059 5.1190 2.3478
O    2.5127 6.6761 1.4825
H    -4.3625 3.1407 -2.9041
O    -1.4311 5.2686 -0.8032
O    4.1522 2.9094 0.5916
H    4.9057 0.9484 2.0890
H    6.2863 4.3410 0.8427
H    7.1744 3.5938 3.1016
H    8.1305 3.2244 1.8963
H    7.4425 1.0675 1.8821
H    6.9236 1.3563 3.3480
C    -2.5309 -1.4840 1.4777
C    2.0008 1.9705 -1.7621
C    2.8061 -0.8610 1.5962
C    -0.8374 -1.8161 -1.8537
C    -2.6448 1.7768 -0.7953
C    -4.6754 1.3780 -1.8126
C    -4.3084 2.8612 -1.9769
C    5.0921 5.9809 -1.0339
C    0.5604 2.5264 2.2059
C    -0.2449 5.3579 -1.1523
C    3.3986 6.3131 2.2975
C    5.2060 2.7202 1.2392
C    7.2366 3.1190 2.2565
C    6.8696 1.6357 2.4208
N    -2.9301 2.8820 -1.4919
N    -3.6687 0.9183 -0.8743
N    5.4913 1.6149 1.9358
N    6.2299 3.5786 1.3182
O    -1.3321 -1.0429 1.4258
O    -3.2764 -1.6503 0.5063
O    1.9801 3.0545 -1.1451
O    1.2357 0.9932 -1.5382
X    -2.7823 -1.5899 2.1666
X    2.4869 1.8471 -2.3040
X    2.6554 -0.8511 2.3244
X    -1.1354 -2.3384 -2.2851
X    5.3435 6.0868 -1.7227
X    0.0743 2.6498 2.7479
X    -0.0942 5.3481 -1.8805
X    3.6966 6.8354 2.7289
   0    1 S
   0    4 S
   0    5 S
   0    6 S
   0   11 S
   0   46 S
   0   49 S
   1   30 S
   2    7 S
   2   12 S
   2   13 S
   2   17 S
   2   18 S
   2   21 S
   2   48 S
   3   30 D
   4   31 A
   5   31 A
   6   32 D
   7   35 S
   8   35 D
   9   42 S
  10   43 S
  11   36 A
  12   36 A
  13   37 S
  14   33 S
  15   33 S
  16   34 S
  17   38 A
  18   38 A
  19   34 S
  20   37 D
  21   39 D
  22   44 S
  23   45 S
  24   40 S
  25   40 S
  26   41 S
  27   41 S
  28   46 S
  28   47 D
  28   50 S
  29   48 A
  29   49 A
  29   51 S
  30   52 S
  31   53 S
  32   42 S
  32   43 S
  33   34 S
  33   43 S
  34   33 S
  34   16 S
  34   42 S
  35   54 S
  36   55 S
  37   56 S
  38   57 S
  39   44 S
  39   45 S
  40   41 S
  40   45 S
  41   40 S
  41   26 S
  41   44 S
  43   33 S
  45   40 S
