24
   19   20   21   22   23
Zn   0.0000 0.0000 0.0000
Zn   1.0671 2.7037 -1.8234
O    -0.2583 -0.2060 -1.8505
O    0.1742 1.7469 -3.2295
O    -0.0911 3.0824 -0.4590
O    -1.0657 1.3404 0.8833
C    -1.0859 2.7065 0.5248
H    0.7220 -2.7089 -0.6507
O    2.0137 4.3293 -2.1765
O    -0.1488 5.0964 -2.9394
C    -0.3448 0.4358 -3.1144
C    1.2064 5.3500 -2.5850
C    2.8845 0.6895 -0.4590
C    -0.5986 -2.9840 0.6958
O    1.8551 0.0905 0.2943
O    2.5673 1.6368 -1.4161
O    -0.6880 -1.6240 0.7583
O    0.4077 -3.3782 -0.2964
H    -0.4659 4.5401 -2.4266
X    -1.4693 3.2062 0.8521
X    -0.5842 0.0675 -3.6801
X    1.4169 6.0361 -2.6496
X    3.5678 0.4969 -0.3485
X    -0.9172 -3.5081 1.0459
   0    2 S
   0    5 S
   0   14 S
   0   16 S
   1    3 S
   1    4 S
   1    8 S
   1   15 S
   2   10 A
   3   10 A
   4    6 A
   5    6 A
   6   19 S
   7   17 S
   8   11 A
   9   11 A
   9   18 S
  10   20 S
  11   21 S
  12   14 A
  12   15 A
  12   22 S
  13   16 A
  13   17 A
  13   23 S
