26
   22   23   24   25
Nd   0.0000 0.0000 0.0000
Nd   -0.1815 1.0488 3.9862
H    3.2372 0.7556 2.0294
H    -3.4188 0.2931 1.9566
C    -2.7536 1.2781 5.2467
C    -0.6059 3.1555 1.2301
C    2.3729 1.0489 2.4646
C    2.5720 -0.2294 -1.2607
C    0.4244 -2.1068 2.7559
C    -2.5545 -0.0002 1.5214
O    -2.2579 0.1491 5.3341
O    -2.3313 2.1548 4.5147
O    -0.5476 2.3810 0.2429
O    -0.4205 2.9061 2.4422
O    1.3465 0.7644 1.8459
O    2.3694 1.2634 3.6990
O    2.0763 0.8996 -1.3481
O    2.1498 -1.1061 -0.5287
O    0.3660 -1.3323 3.7431
O    0.2389 -1.8574 1.5438
O    -1.5281 0.2842 2.1401
O    -2.5510 -0.2147 0.2870
X    -3.4738 1.4445 5.4085
X    -0.5738 3.9586 1.5165
X    3.2923 -0.3958 -1.4226
X    0.3923 -2.9099 2.4695
   0   12 S
   0   14 S
   0   16 S
   0   17 S
   0   19 S
   0   20 S
   0   21 S
   1   10 S
   1   11 S
   1   13 S
   1   14 S
   1   15 S
   1   18 S
   1   20 S
   2    6 S
   3    9 S
   4   10 A
   4   11 A
   4   22 S
   5   12 A
   5   13 A
   5   23 S
   6   14 S
   6   15 D
   7   16 A
   7   17 A
   7   24 S
   8   18 A
   8   19 A
   8   25 S
   9   20 S
   9   21 D
