24
   21   22   23
C    0.0000 0.0000 0.0000
C    -1.2179 -0.4149 -0.6032
C    -2.2431 -0.7875 0.2003
C    -2.1411 -0.7451 1.6137
C    -0.9368 -0.3134 2.1434
C    0.1332 0.0323 1.3771
C    2.1963 0.8399 -0.3272
C    -3.6942 -1.2593 -1.6553
C    -1.7872 -0.2365 4.4173
H    -1.3105 -0.4317 -1.5492
H    -2.8656 -1.0016 2.1724
H    0.9545 0.2922 1.7784
H    2.0370 1.6519 0.2181
H    2.5846 0.1428 0.2582
H    -3.6005 -0.3480 -2.0322
O    0.9784 0.3826 -0.8765
O    -3.4495 -1.2426 -0.2399
H    -3.0509 -1.8571 -2.1101
O    -0.7005 -0.2532 3.5197
H    -2.5752 0.1907 3.9953
H    -2.0318 -1.1589 4.6786
X    2.6704 0.9972 -0.8892
X    -4.3952 -1.5097 -1.7479
X    -1.5712 0.1534 5.0152
   0    1 A
   0    5 A
   0   15 S
   1    2 A
   1    9 S
   2    3 A
   2   16 S
   3    4 A
   3   10 S
   4    5 A
   4   18 S
   5   11 S
   6   12 S
   6   13 S
   6   15 S
   6   21 S
   7   14 S
   7   16 S
   7   17 S
   7   22 S
   8   18 S
   8   19 S
   8   20 S
   8   23 S
