47
   43   44   45   46
Co   0.0000 0.0000 0.0000
H    0.4704 3.5022 3.7757
H    1.0755 1.7093 2.4230
H    -2.4685 1.7236 0.7049
H    -3.1428 3.4904 1.9928
H    -0.4704 -3.5022 3.7757
H    -1.0755 -1.7093 2.4230
H    2.4685 -1.7236 0.7049
H    3.1428 -3.4904 1.9928
H    1.7681 -0.1451 -2.5577
H    2.2869 -1.5642 -4.3743
H    0.2052 -4.4888 -2.4592
H    -0.3071 -2.9115 -0.8007
H    -1.7681 0.1451 -2.5577
H    -2.2869 1.5642 -4.3743
H    -0.2052 4.4888 -2.4592
H    0.3071 2.9115 -0.8007
C    -1.4244 3.6721 3.0527
C    -0.1568 3.1363 3.1563
C    0.1960 2.0778 2.3400
C    -1.8556 2.0778 1.3398
C    -2.2738 3.1363 2.1068
C    1.4244 -3.6721 3.0527
C    0.1568 -3.1363 3.1563
C    -0.1960 -2.0778 2.3400
C    1.8556 -2.0778 1.3398
C    2.2738 -3.1363 2.1068
C    1.4244 -1.0324 -2.5629
C    1.7642 -1.8687 -3.6487
C    1.2676 -3.1885 -3.5917
C    0.5227 -3.5936 -2.5292
C    0.2352 -2.6397 -1.5341
C    -1.4244 1.0324 -2.5629
C    -1.7642 1.8687 -3.6487
C    -1.2676 3.1885 -3.5917
C    -0.5227 3.5936 -2.5292
C    -0.2352 2.6397 -1.5341
N    -0.6273 1.5289 1.4434
N    0.6273 -1.5289 1.4434
N    0.6534 -1.3983 -1.5471
N    -0.6534 1.3983 -1.5471
Cl   2.1902 1.0167 0.0078
Cl   -2.1902 -1.0167 0.0078
X    -1.6269 4.2209 3.4751
X    1.6269 -4.2209 3.4751
X    1.4113 -3.6394 -4.1773
X    -1.4113 3.6394 -4.1773
   0   37 S
   0   38 S
   0   39 S
   0   40 S
   0   41 S
   0   42 S
   1   18 S
   2   19 S
   3   20 S
   4   21 S
   5   23 S
   6   24 S
   7   25 S
   8   26 S
   9   27 S
  10   28 S
  11   30 S
  12   31 S
  13   32 S
  14   33 S
  15   35 S
  16   36 S
  17   18 A
  17   21 A
  17   43 S
  18   19 A
  19   37 A
  20   21 A
  20   37 A
  22   23 A
  22   26 A
  22   44 S
  23   24 A
  24   38 A
  25   26 A
  25   38 A
  27   28 A
  27   39 A
  28   29 A
  29   30 A
  29   45 S
  30   31 A
  31   39 A
  32   33 A
  32   40 A
  33   34 A
  34   35 A
  34   46 S
  35   36 A
  36   40 A
