49
   45   46   47   48
H    0.0000 0.0000 0.0000
H    1.5317 -0.1130 -1.6974
H    0.9985 -4.0389 -1.7271
H    -0.4920 -3.7972 -0.0025
H    -3.8968 -3.3574 0.0000
H    -5.4285 -3.2445 -1.6974
H    -4.8952 0.6814 -1.7271
H    -3.4048 0.4397 -0.0025
H    -4.1470 0.3328 2.9322
H    -5.8233 0.5430 4.4589
H    -4.7738 -3.0197 5.9460
H    -3.1704 -3.1521 4.3178
H    -0.4336 0.9851 1.9226
H    0.2502 -3.6903 2.9322
H    1.9265 -3.9004 4.4589
H    0.8770 -0.3377 5.9460
H    -0.7264 -0.2053 4.3178
H    -3.4631 -4.3426 1.9226
C    0.2162 -0.8381 -0.3405
C    1.1491 -0.8928 -1.3659
C    1.4965 -2.1099 -1.8798
C    0.8369 -3.1934 -1.3760
C    -0.0753 -3.0367 -0.3412
C    -4.1130 -2.5193 -0.3405
C    -5.0459 -2.4646 -1.3659
C    -5.3933 -1.2475 -1.8798
C    -4.7337 -0.1640 -1.3760
C    -3.8214 -0.3207 -0.3412
C    -4.2915 -0.3656 3.5305
C    -5.2973 -0.2247 4.4455
C    -5.5196 -1.2511 5.3571
C    -4.6863 -2.3347 5.3219
C    -3.7121 -2.3978 4.3450
C    0.3948 -2.9918 3.5305
C    1.4005 -3.1327 4.4455
C    1.6228 -2.1063 5.3571
C    0.7896 -1.0228 5.3219
C    -0.1846 -0.9596 4.3450
S    -1.6087 0.7473 1.8667
S    -2.2880 -4.1047 1.8667
N    -0.3838 -1.8743 0.1848
N    -3.5129 -1.4831 0.1848
N    -3.5008 -1.4406 3.4369
N    -0.3960 -1.9168 3.4369
Fe   -1.9484 -1.6787 1.8231
X    1.9459 -2.2186 -2.3663
X    -5.8427 -1.1388 -2.3663
X    -6.0328 -1.1637 5.7926
X    2.1360 -2.1937 5.7926
   0   18 S
   1   19 S
   2   21 S
   3   22 S
   4   23 S
   5   24 S
   6   26 S
   7   27 S
   8   28 S
   9   29 S
  10   31 S
  11   32 S
  12   38 S
  13   33 S
  14   34 S
  15   36 S
  16   37 S
  17   39 S
  18   19 A
  18   40 A
  19   20 A
  20   21 A
  20   45 S
  21   22 A
  22   40 A
  23   24 A
  23   41 A
  24   25 A
  25   26 A
  25   46 S
  26   27 A
  27   41 A
  28   29 A
  28   42 A
  29   30 A
  30   31 A
  30   47 S
  31   32 A
  32   42 A
  33   34 A
  33   43 A
  34   35 A
  35   36 A
  35   48 S
  36   37 A
  37   43 A
  38   44 S
  39   44 S
  40   44 S
  41   44 S
  42   44 S
  43   44 S
