35
   27   28   29   30   31   32   33   34
Cd   0.0000 0.0000 0.0000
O    3.4727 -0.2409 0.2671
C    4.5214 -0.2326 4.0101
O    1.5746 -0.9456 -0.6616
O    -1.3842 -0.4384 -1.4552
O    -0.9005 -1.8317 0.0778
Cd   2.9161 1.1599 1.6069
O    1.0536 0.1766 1.7622
O    -1.0356 0.7351 1.5872
C    2.8299 -1.0002 -0.5379
O    0.3583 1.7394 -0.9676
O    2.1976 2.3653 0.1427
C    -1.5056 -1.6264 -1.0185
C    -0.0938 0.6972 2.3535
C    1.3167 2.5658 -0.7629
Cd   5.8284 2.3156 3.2243
O    2.3314 2.6127 2.9017
O    4.2209 3.2000 3.9228
O    7.2900 2.7572 4.6064
O    6.5757 4.2047 3.2207
O    4.7995 2.1576 1.4511
O    6.8784 1.5351 1.6456
C    2.9719 3.3223 3.7487
O    5.4616 0.6073 4.2256
O    3.6486 -0.0523 3.0886
C    7.2936 3.9752 4.2411
C    5.9411 1.6079 0.8690
X    4.4754 -0.6582 4.6122
X    2.9541 -1.7002 -0.7355
X    -2.0845 -2.1766 -0.9522
X    0.1220 1.1197 2.8279
X    1.3563 2.9922 -1.3683
X    2.8540 4.0233 3.9417
X    7.8753 4.5214 4.1708
X    5.7297 1.1919 0.3869
   0    3 S
   0    4 S
   0    5 S
   0    7 S
   0    8 S
   0   10 S
   1    6 S
   1    9 A
   2   23 A
   2   24 A
   2   27 S
   3    9 A
   4   12 A
   5   12 A
   6    7 S
   6   11 S
   6   16 S
   6   20 S
   6   24 S
   7   13 S
   8   13 D
   9   28 S
  10   14 A
  11   14 A
  12   29 S
  13   30 S
  14   31 S
  15   17 S
  15   18 S
  15   19 S
  15   20 S
  15   21 S
  15   23 S
  16   22 A
  17   22 A
  18   25 A
  19   25 A
  20   26 S
  21   26 D
  22   32 S
  25   33 S
  26   34 S
  29   12 S
  33   25 S
