77
   73   74   75   76
C    0.0000 0.0000 0.0000
C    0.6006 1.1853 0.3635
C    0.2375 1.8205 1.5357
C    -1.9227 4.9605 6.0968
C    -2.2188 5.6581 7.2559
N    -2.4867 3.8272 5.7415
N    -0.6882 1.3129 2.3624
Co   -1.5875 2.5700 4.0520
H    -5.0930 3.2582 0.4404
H    -5.9339 1.3271 1.6765
H    1.0830 6.5248 2.1954
H    -0.8642 6.3604 0.7187
H    3.8395 4.1939 3.8228
H    5.5539 5.6883 3.8670
H    3.2519 8.5552 4.9688
H    1.3754 7.1912 4.9279
H    1.9180 1.8819 7.6636
H    2.7590 3.8130 6.4275
H    -4.2579 -1.3847 5.9085
H    -2.3107 -1.2203 7.3852
H    -7.0144 0.9462 4.2812
H    -8.7288 -0.5482 4.2370
H    -6.4268 -3.4151 3.1352
H    -4.5503 -2.0511 3.1761
C    0.3250 1.8432 6.2769
C    -4.7037 2.8725 1.1902
C    -5.1693 1.8205 1.8696
C    -4.2586 1.5965 2.9649
C    -4.3731 0.5416 3.8752
C    -3.4298 0.2779 4.8395
C    0.3874 5.9123 2.2642
C    -0.6845 5.8273 1.4587
C    -1.5058 4.7469 1.9646
C    -0.4759 0.8025 6.7337
C    2.3756 5.5182 4.3254
C    3.6756 5.0815 4.0438
C    4.7037 5.9889 4.0962
C    3.3590 7.6619 4.7314
C    2.2117 6.8509 4.7052
C    -3.4999 3.2969 1.8271
C    1.5288 2.2676 6.9137
C    1.9944 3.3196 6.2343
C    1.0837 3.5436 5.1391
C    1.1982 4.5985 4.2288
C    0.2548 4.8622 3.2645
C    -3.5623 -0.7722 5.8398
C    -2.4904 -0.6872 6.6452
C    -1.6691 0.3932 6.1394
C    -2.6990 4.3376 1.3703
C    -5.5505 -0.3781 3.7786
C    -6.8505 0.0586 4.0602
C    -7.8786 -0.8488 4.0078
C    -6.5339 -2.5218 3.3726
C    -5.3866 -1.7108 3.3988
H    1.2538 1.5577 -0.1866
H    0.6485 2.6239 1.7616
N    0.0726 2.6145 5.1702
H    -1.3919 -1.3148 0.6467
N    -2.2424 0.9670 5.0277
N    -3.2475 2.5256 2.9338
H    -1.8966 -0.1777 2.5736
N    -0.9325 4.1731 3.0762
N    4.5724 7.2479 4.4498
N    -7.7473 -2.1078 3.6541
H    -4.4287 3.5824 8.2906
H    -3.8234 2.5162 6.3424
H    -1.2783 5.3178 5.5303
H    -1.7830 6.4549 7.4573
C    -3.1749 5.1401 8.1040
C    -3.7756 3.9548 7.7405
C    -3.4124 3.3196 6.5683
C    -1.2522 0.1796 2.0072
C    -0.9561 -0.5180 0.8481
X    0.3231 -0.1021 -0.5206
X    -0.5117 0.0856 6.9835
X    -2.6632 5.0545 1.1205
X    -3.4980 5.2422 8.6246
   0    1 A
   0   72 A
   0   73 S
   1    2 A
   1   54 S
   2    6 A
   2   55 S
   3    4 A
   3    5 A
   3   66 S
   4   67 S
   4   68 A
   5    7 S
   5   70 A
   6    7 S
   6   71 A
   7   56 S
   7   58 S
   7   59 S
   7   61 S
   8   25 S
   9   26 S
  10   30 S
  11   31 S
  12   35 S
  13   36 S
  14   37 S
  15   38 S
  16   40 S
  17   41 S
  18   45 S
  19   46 S
  20   50 S
  21   51 S
  22   52 S
  23   53 S
  24   33 A
  24   40 A
  24   56 A
  25   26 A
  25   39 A
  26   27 A
  27   28 A
  27   59 A
  28   29 A
  28   49 S
  29   45 A
  29   58 A
  30   31 A
  30   44 A
  31   32 A
  32   48 A
  32   61 A
  33   47 A
  33   74 S
  34   35 A
  34   38 A
  34   43 S
  35   34 A
  35   36 A
  36   62 A
  37   38 A
  37   62 A
  38   37 A
  39   48 A
  39   59 A
  40   41 A
  41   42 A
  42   43 A
  42   56 A
  43   44 A
  44   61 A
  45   46 A
  46   47 A
  47   58 A
  48   75 S
  49   50 A
  49   53 A
  50   49 A
  50   51 A
  51   63 A
  52   53 A
  52   63 A
  53   52 A
  57   72 S
  60   71 S
  64   69 S
  65   70 S
  68   69 A
  68   76 S
  69   70 A
  71   72 A
