26
   20   21   22   23   24   25
Nd   0.0000 0.0000 0.0000
O    1.5398 -1.8052 -0.4418
Nd   1.6804 -1.5485 -3.0982
O    3.4649 -1.9408 -1.4111
C    -1.6746 -0.4997 -2.3462
C    1.3387 1.8810 -1.7421
C    -1.4118 -1.8251 1.7069
O    -1.8772 0.4538 -1.5739
O    -0.6287 -1.1943 -2.2595
O    -1.7325 -1.6761 0.5222
O    -0.3951 -1.2319 2.1744
C    0.7080 -4.1048 -3.8093
O    3.6004 -0.5875 -4.2821
C    4.1501 -1.7228 -4.4607
O    3.5592 -2.7930 -4.2322
O    1.2371 -3.9516 -2.6036
O    0.5729 -3.1344 -4.6236
C    2.7353 -2.1084 -0.3604
O    1.5867 0.6185 -2.0129
O    0.5469 2.2658 -0.8700
X    -2.0331 -0.7444 -3.0186
X    1.5782 2.4984 -2.1014
X    -1.7922 -2.4073 1.9243
X    0.6974 -4.7632 -4.1135
X    4.9050 -1.4935 -4.4345
X    3.0233 -2.3919 0.2687
   0    1 S
   0    2 S
   0    7 S
   0    8 S
   0    9 S
   0   10 S
   0   18 S
   0   19 S
   1   17 S
   1    2 S
   2    3 S
   2    8 S
   2   12 S
   2   14 S
   2   15 S
   2   16 S
   2   18 S
   3   17 D
   4    7 D
   4    8 S
   4   20 S
   5   18 S
   5   19 D
   5   21 S
   6    9 A
   6   10 A
   6   22 S
  11   15 A
  11   16 A
  11   23 S
  12   13 A
  13   14 A
  13   24 S
  17   25 S
