61
   55   56   57   58   59   60
C    0.0000 0.0000 0.0000
C    -1.1507 -0.4762 0.6277
C    -2.7817 -2.7014 -1.1819
C    -2.9442 -3.6834 -2.1857
C    -1.1858 -1.3877 1.8146
C    -0.1053 -1.8936 2.4734
C    -2.6357 -2.3883 3.3602
C    -1.5681 -2.8904 4.1142
C    -4.1005 -4.4634 -2.1309
C    -0.2789 -2.6569 3.6582
C    -5.6594 -3.1127 1.0452
C    -5.0147 -4.2948 -1.1034
C    -4.7894 -3.3406 -0.1170
C    -5.6667 -0.6874 -1.3823
C    -6.7657 -0.1797 -2.0495
C    -7.5064 0.8560 -1.4676
C    -7.0834 1.3396 -0.2196
C    -5.9567 0.7986 0.4101
C    -5.3620 1.3081 1.6566
N    -2.3772 -0.0778 0.2092
C    -5.7923 2.4420 2.3643
C    -3.8899 2.2678 3.8078
C    -3.5205 1.0969 3.1258
C    -5.0591 2.9182 3.4421
N    -2.4658 -1.6583 2.2350
Co   -3.8583 -0.9822 1.0358
N    -5.2512 -0.2372 -0.1619
N    -4.2593 0.6096 2.0993
H    -3.3561 1.1006 -1.0339
H    0.6132 1.2043 -1.5224
H    0.8423 -0.2761 0.2788
H    0.7499 -1.7379 2.1442
H    0.4562 -2.9941 4.1182
H    -3.5020 -2.5680 3.6444
N    -5.2936 -2.0529 1.8402
N    -3.6719 -2.5198 -0.1900
H    -5.7702 -1.0857 3.5210
H    -8.1806 -4.1947 2.7561
H    -7.0059 -4.5857 0.7822
H    -5.7794 -4.8228 -1.0733
H    -4.2593 -5.1008 -2.7907
H    -2.0262 -2.1567 -1.2066
C    -6.0048 -1.8139 2.9900
H    -5.1847 -1.3729 -1.7840
H    -8.2526 1.2099 -1.8925
H    -7.5544 2.0270 0.1900
H    -6.5737 2.8774 2.1097
H    -5.3491 3.6648 3.9158
H    -2.7484 0.6466 3.3829
C    -7.0668 -2.6236 3.3903
C    -7.4510 -3.6593 2.5355
C    -6.7454 -3.9001 1.3531
C    -2.5046 0.8226 -0.7812
C    -1.3927 1.3525 -1.4425
C    -0.1404 0.9060 -1.0689
X    -2.4187 -3.8288 -2.7255
X    -1.7168 -3.3017 4.7414
X    -6.9828 -0.5021 -2.7162
X    -3.4438 2.5244 4.3689
X    -7.4519 -2.5105 4.0481
X    -1.5294 1.8472 -2.0129
   0    1 A
   0   30 S
   0   54 A
   1    4 S
   1   19 A
   2    3 A
   2   35 A
   2   41 S
   3    8 A
   3   55 S
   4    5 A
   4   24 A
   5    9 A
   5   31 S
   6    7 A
   6   24 A
   6   33 S
   7    9 A
   7   56 S
   8   11 A
   8   40 S
   9   32 S
  10   12 S
  10   34 A
  10   51 A
  11   12 A
  11   39 S
  12   35 A
  13   14 A
  13   26 A
  13   43 S
  14   15 A
  14   57 S
  15   16 A
  15   44 S
  16   17 A
  16   45 S
  17   18 S
  17   26 A
  18   20 A
  18   27 A
  19   25 S
  19   52 A
  20   23 A
  20   46 S
  21   22 A
  21   23 A
  21   58 S
  22   27 A
  22   48 S
  23   47 S
  24   25 S
  25   26 S
  25   27 S
  25   34 S
  25   35 S
  28   52 S
  29   54 S
  34   42 A
  36   42 S
  37   50 S
  38   51 S
  42   49 A
  49   50 A
  49   59 S
  50   51 A
  52   53 A
  53   54 A
  53   60 S
