40
   32   33   34   35   36   37   38   39
Co   0.0000 0.0000 0.0000
Co   6.0657 -7.4377 0.0000
Co   4.6874 -4.1657 0.0000
Co   1.3783 -3.2720 0.0000
C    -0.7452 -2.2608 -1.9382
C    6.8110 -5.1769 -1.9382
C    4.2472 -8.4995 -2.1646
C    1.8185 1.0618 -2.1646
O    6.9374 -6.3229 1.4775
O    5.9564 -4.3181 1.5974
O    -0.8716 -1.1148 1.4775
O    0.1093 -3.1196 1.5974
O    0.7950 1.2440 1.4634
O    2.6033 0.1012 2.0581
O    5.2707 -8.6817 1.4634
O    3.4625 -7.5389 2.0581
O    -0.8716 -1.1148 -1.4775
O    0.1093 -3.1196 -1.5974
C    6.8110 -5.1769 1.9382
O    6.9374 -6.3229 -1.4775
O    5.9564 -4.3181 -1.5974
O    5.2707 -8.6817 -1.4634
O    3.4625 -7.5389 -2.0581
O    0.7950 1.2440 -1.4634
O    2.6033 0.1012 -2.0581
C    -0.7452 -2.2608 1.9382
O    1.8355 -1.2467 0.0000
O    4.2302 -6.1910 0.0000
O    3.0329 -3.7189 1.4053
O    3.0329 -3.7189 -1.4053
C    1.8185 1.0618 2.1646
C    4.2472 -8.4995 2.1646
X    -1.2314 -2.4533 -2.4827
X    7.2972 -4.9844 -2.4827
X    4.1030 -9.0241 -2.6847
X    1.9627 1.5864 -2.6847
X    7.2972 -4.9844 2.4827
X    -1.2314 -2.4533 2.4827
X    1.9627 1.5864 2.6847
X    4.1030 -9.0241 2.6847
   0   10 S
   0   12 S
   0   16 S
   0   23 S
   0   26 S
   1    8 S
   1   14 S
   1   19 S
   1   21 S
   1   27 S
   2    9 S
   2   20 S
   2   27 S
   2   28 S
   2   29 S
   3   11 S
   3   17 S
   3   26 S
   3   28 S
   3   29 S
   4   16 A
   4   17 A
   4   32 S
   5   19 A
   5   20 A
   5   33 S
   6   21 S
   6   22 D
   6   34 S
   7   23 S
   7   24 D
   7   35 S
   8   18 A
   9   18 A
  10   25 A
  11   25 A
  12   30 S
  13   30 D
  14   31 S
  15   31 D
  18   36 S
  25   37 S
  30   38 S
  31   39 S
