28
   24   25   26   27
H    0.0000 0.0000 0.0000
H    -2.0635 -3.4449 0.1376
H    -4.0183 0.0862 0.3470
H    -1.3438 1.8909 1.0324
H    -1.4787 1.9276 -0.5535
C    -4.1270 4.5311 0.5529
C    -1.7486 4.4786 0.3542
C    -2.9907 3.8205 0.4170
C    -3.0212 2.4340 0.3579
C    -4.1118 5.9107 0.5733
C    -1.7408 5.8474 0.3871
C    -2.9159 6.5690 0.4881
C    -0.8284 -0.4572 0.0837
C    -0.8436 -1.8369 0.0634
C    -2.0395 -2.4952 0.1485
C    -3.2146 -1.7736 0.2495
C    -3.2068 -0.4048 0.2825
C    -1.9647 0.2533 0.2197
C    -1.9342 1.6398 0.2787
H    -4.9554 4.0738 0.6366
H    -2.8919 7.5187 0.4990
H    -0.9371 3.9876 0.2896
H    -3.6116 2.1829 -0.3957
H    -3.4766 2.1462 1.1901
X    -4.7663 6.3248 0.5170
X    -1.0788 6.2094 0.2627
X    -0.1891 -2.2509 0.1196
X    -3.8766 -2.1355 0.3739
   0   12 S
   1   14 S
   2   16 S
   3   18 S
   4   18 S
   5    7 A
   5    9 A
   5   19 S
   6    7 A
   6   10 A
   6   21 S
   7    8 S
   8   18 S
   8   22 S
   8   23 S
   9   11 A
   9   24 S
  10   11 A
  10   25 S
  11   20 S
  12   13 A
  12   17 A
  13   14 A
  13   26 S
  14   15 A
  15   16 A
  15   27 S
  16   17 A
  17   18 S
