66
   62   63   64   65
Cu   0.0000 0.0000 0.0000
Cu   1.9172 -2.4393 -0.1675
N    2.6429 -3.9618 0.8732
N    -1.3043 1.0192 1.1047
Cu   1.8024 -4.7221 -2.5321
Cu   -0.1147 -2.2829 -2.3646
N    -0.8404 -0.7603 -3.4054
N    3.1067 -5.7413 -3.6368
O    1.0228 -1.1009 -1.2587
O    3.1244 -1.2305 0.7125
O    1.7150 0.3763 1.3600
H    1.6510 -0.5730 -1.7949
O    0.7797 -3.6212 -1.2735
H    1.1092 -4.3847 1.9959
H    -3.6671 3.1890 0.8557
O    -1.3219 -3.4916 -3.2446
O    0.0874 -5.0985 -3.8921
H    1.9181 -6.2976 2.9499
H    -0.6808 0.3593 2.8378
H    -2.0303 1.6422 4.1726
H    -2.2295 1.9175 -0.3734
H    5.3088 -5.7470 0.8747
H    4.3920 -3.8483 0.0074
H    3.6482 1.3129 2.4803
H    4.3047 -0.0891 2.7257
H    4.6599 0.7283 1.4374
H    0.1515 -4.1491 -0.7372
H    0.6932 -0.3375 -4.5280
H    5.4696 -7.9111 -3.3878
H    -0.1156 1.5755 -5.4821
H    2.4832 -5.0814 -5.3700
H    3.8327 -6.3643 -6.7048
H    4.0319 -6.6396 -2.1588
H    -3.5064 1.0249 -3.4069
H    -2.5896 -0.8739 -2.5395
H    -1.8457 -6.0351 -5.0125
H    -2.5023 -4.6330 -5.2578
H    -2.8574 -5.4504 -3.9696
C    1.9602 -4.6770 1.7568
C    -2.9816 2.5915 2.6531
C    -3.0499 2.6384 1.2817
C    2.4359 -5.8222 2.3411
C    2.8293 -0.1473 1.3285
C    -1.2756 0.9511 2.4376
C    -2.0831 1.7131 3.2459
C    3.6954 -6.2536 2.0050
C    -2.1940 1.8607 0.5551
C    4.4453 -5.4930 1.1116
C    3.8841 -4.3634 0.5891
C    3.9620 0.5112 2.0594
C    -0.1577 -0.0451 -4.2890
C    4.7840 -7.3137 -5.1853
C    4.8523 -7.3605 -3.8139
C    -0.6335 1.1001 -4.8733
C    -1.0268 -4.5748 -3.8606
C    3.0781 -5.6732 -4.9697
C    3.8856 -6.4352 -5.7780
C    -1.8930 1.5315 -4.5371
C    3.9965 -6.5828 -3.0872
C    -2.6429 0.7708 -3.6438
C    -2.0817 -0.3587 -3.1213
C    -2.1595 -5.2333 -4.5915
X    -3.2604 2.9690 3.2048
X    4.0519 -6.8053 2.0708
X    5.0628 -7.6911 -5.7370
X    -2.2495 2.0832 -4.6029
   0    3 S
   0    8 S
   0   10 S
   1    2 S
   1    8 S
   1    9 S
   1   12 S
   2   38 A
   2   48 A
   3   43 A
   3   46 A
   4    7 S
   4   12 S
   4   16 S
   5    6 S
   5    8 S
   5   12 S
   5   15 S
   6   50 A
   6   60 A
   7   55 A
   7   58 A
   8   11 S
   9   42 A
  10   42 A
  12   26 S
  13   38 S
  14   40 S
  15   54 A
  16   54 A
  17   41 S
  18   43 S
  19   44 S
  20   46 S
  21   47 S
  22   48 S
  23   49 S
  24   49 S
  25   49 S
  27   50 S
  28   52 S
  29   53 S
  30   55 S
  31   56 S
  32   58 S
  33   59 S
  34   60 S
  35   61 S
  36   61 S
  37   61 S
  38   41 A
  39   40 A
  39   44 A
  39   62 S
  40   46 A
  41   45 A
  42   49 S
  43   44 A
  45   47 A
  45   63 S
  47   48 A
  50   53 A
  51   52 A
  51   56 A
  51   64 S
  52   58 A
  53   57 A
  54   61 S
  55   56 A
  57   59 A
  57   65 S
  59   60 A
