45
   41   42   43   44
H    0.0000 0.0000 0.0000
H    -1.7150 0.3240 -1.6054
H    -5.4275 0.8580 -4.1114
H    -7.0865 1.1745 -5.7294
H    -6.2456 5.0857 -5.8197
H    -4.5595 4.7330 -4.2218
H    -4.8102 0.9206 -0.4290
H    -6.5265 1.1745 1.1163
H    -7.0059 4.9931 0.0000
H    -5.2909 4.6692 -1.6054
H    -1.5785 4.1351 -4.1114
H    0.0806 3.8186 -5.7294
H    -0.7603 -0.0926 -5.8197
H    -2.4464 0.2602 -4.2218
Pd   -3.5030 2.4966 -2.5742
C    -1.4614 1.0344 -1.0285
C    -0.4382 0.8380 -0.0727
C    -0.0966 1.8887 0.7576
C    -0.7340 3.0769 0.5795
C    -1.7454 3.2395 -0.3487
C    -5.0981 4.0075 -4.5153
C    -6.0881 4.2126 -5.4811
C    -6.8444 3.1370 -5.9477
C    -6.5798 1.9200 -5.4284
C    -5.6060 1.7273 -4.4476
C    -5.5446 3.9587 -1.0285
C    -6.5677 4.1551 -0.0727
C    -6.9093 3.1044 0.7576
C    -6.2719 1.9162 0.5795
C    -5.2605 1.7536 -0.3487
C    -1.9078 0.9856 -4.5153
C    -0.9178 0.7805 -5.4811
C    -0.1616 1.8562 -5.9477
C    -0.4261 3.0732 -5.4284
C    -1.3999 3.2658 -4.4476
N    -4.9014 2.7767 -4.0011
N    -2.0856 2.2151 -1.1263
N    -2.1045 2.2164 -4.0011
N    -4.9204 2.7780 -1.1263
H    -2.1957 4.0726 -0.4290
H    -0.4794 3.8186 1.1163
X    0.4352 1.7462 1.2781
X    -7.3736 3.2906 -6.4431
X    -7.4411 3.2469 1.2781
X    0.3677 1.7026 -6.4431
   0   16 S
   1   15 S
   2   24 S
   3   23 S
   4   21 S
   5   20 S
   6   29 S
   7   28 S
   8   26 S
   9   25 S
  10   34 S
  11   33 S
  12   31 S
  13   30 S
  14   35 S
  14   36 S
  14   37 S
  14   38 S
  15   16 A
  15   36 A
  16   17 A
  17   18 A
  17   41 S
  18   19 A
  18   40 S
  19   36 A
  19   39 S
  20   21 A
  20   35 A
  21   22 A
  22   23 A
  22   42 S
  23   24 A
  24   35 A
  25   26 A
  25   38 A
  26   27 A
  27   28 A
  27   43 S
  28   29 A
  29   38 A
  30   31 A
  30   37 A
  31   32 A
  32   33 A
  32   44 S
  33   34 A
  34   37 A
