53
   47   48   49   50   51   52
O    0.0000 0.0000 0.0000
Ni   -0.2505 -1.5917 1.3915
O    -1.6246 1.0976 -0.9596
O    -0.5010 -3.1833 2.7831
O    1.1236 -4.2810 3.7427
H    3.8001 1.3015 2.2516
H    2.2762 0.0361 1.0817
H    0.6120 -1.2333 4.3286
H    2.3010 -0.2799 5.6056
H    -4.3011 -1.1257 4.3737
H    -2.7773 -2.1162 2.9634
H    -1.1130 1.2712 2.1390
H    -2.8020 2.4094 3.2544
H    -4.3011 -4.4849 0.5315
H    -2.7773 -3.2195 1.7014
H    -1.1130 -1.9500 -1.5455
H    -2.8020 -2.9035 -2.8225
H    3.8001 -2.0576 -1.5906
H    2.2763 -1.0672 -0.1803
H    0.6120 -4.4546 0.6441
H    2.3010 -5.5928 -0.4714
C    3.2260 0.6760 4.0244
C    3.1887 0.7644 2.7080
C    2.2262 0.0378 2.0113
C    1.2790 -0.7436 3.9004
C    2.2658 -0.1466 4.6873
C    -3.7270 0.7147 3.9906
C    -3.6897 -0.6017 3.9023
C    -2.7272 -1.1952 3.0892
C    -1.7801 0.7815 2.5671
C    -2.7668 1.4815 3.2638
C    -3.7270 -3.8594 -1.2413
C    -3.6897 -3.9477 0.0751
C    -2.7272 -3.2211 0.7718
C    -1.7801 -2.4397 -1.1174
C    -2.7668 -3.0367 -1.9042
C    3.2260 -3.8980 -1.2075
C    3.1887 -2.5816 -1.1192
C    2.2262 -1.9882 -0.3061
C    1.2791 -3.9648 0.2160
C    2.2658 -4.6649 -0.4807
C    -0.4409 0.8850 -0.7737
C    -0.0602 -4.0683 3.5568
N    1.2397 -0.6458 2.5559
N    -1.7407 -0.5641 2.4845
N    -1.7407 -2.5376 0.2272
N    1.2397 -2.6192 0.2986
X    3.7697 1.3324 4.1215
X    -4.2707 0.8694 4.5889
X    -4.2707 -4.5158 -1.3384
X    3.7697 -4.0527 -1.8058
X    -0.1593 1.3825 -1.3170
X    -0.3417 -4.5658 4.1001
   0    1 S
   0   41 S
   1    3 S
   1   43 S
   1   44 S
   1   45 S
   1   46 S
   2   41 D
   3   42 S
   4   42 D
   5   22 S
   6   23 S
   7   24 S
   8   25 S
   9   27 S
  10   28 S
  11   29 S
  12   30 S
  13   32 S
  14   33 S
  15   34 S
  16   35 S
  17   37 S
  18   38 S
  19   39 S
  20   40 S
  21   22 A
  21   25 A
  21   47 S
  22   23 A
  23   43 A
  24   25 A
  24   43 A
  26   27 A
  26   30 A
  26   48 S
  27   28 A
  28   44 A
  29   30 A
  29   44 A
  31   32 A
  31   35 A
  31   49 S
  32   33 A
  33   45 A
  34   35 A
  34   45 A
  36   37 A
  36   40 A
  36   50 S
  37   38 A
  38   46 A
  39   40 A
  39   46 A
  41   51 S
  42   52 S
