26
   22   23   24   25
H    0.0000 0.0000 0.0000
C    5.9236 -1.3075 1.1922
C    1.7857 -1.4664 1.4248
C    -0.5129 -0.6898 0.7485
H    -3.7224 -1.6959 1.6306
C    -1.8677 -0.7435 0.8040
H    0.0878 -2.7952 3.6949
C    4.3945 -1.2425 1.3266
C    -2.5820 -1.6951 1.6210
H    2.0997 -0.7144 0.6280
C    3.6576 -2.3148 1.9794
C    -1.8929 -2.6774 2.4530
C    4.5986 -3.2071 2.7388
C    -0.3941 -2.3938 2.7431
H    3.8374 -0.3405 0.9077
C    2.1626 -2.3136 2.2332
C    5.8092 -3.0329 3.0823
C    0.2823 -1.6387 1.7810
H    4.2462 -4.2282 3.1038
C    6.6694 -2.3418 2.0541
H    1.7177 -3.0058 3.0223
H    7.7752 -2.6040 1.9670
X    6.5243 -1.2014 0.7091
X    -1.8964 -0.1710 0.4659
X    -2.5692 -2.8453 2.8572
X    5.8027 -3.5315 3.6177
   0    3 S
   1    7 A
   1   19 A
   1   22 S
   2    9 S
   2   15 D
   2   17 S
   3    5 A
   3   17 A
   4    8 S
   5    8 A
   5   23 S
   6   13 S
   7   10 A
   7   14 S
   8   11 A
  10   12 A
  10   15 S
  11   13 A
  11   24 S
  12   16 A
  12   18 S
  13   17 A
  15   20 S
  16   19 A
  16   25 S
  19   21 S
