64
   58   59   60   61   62   63
C    0.0000 0.0000 0.0000
C    -0.5928 0.1210 -1.2458
Ag   -2.8996 -1.8564 2.7392
C    -2.3881 -1.0886 -0.3165
Ag   0.4714 -1.1810 2.9544
C    -1.8224 -0.4370 -1.4119
Ag   0.4558 -3.1509 5.8512
Ag   -2.9153 -3.8261 5.6360
C    -3.9567 -4.6967 1.5140
C    -4.2322 -6.0609 1.4302
H    2.0723 1.4394 7.9584
C    -4.0704 -6.8136 2.5627
C    -3.6812 -6.1216 3.6962
H    1.1538 1.5920 4.1021
H    1.6305 -0.8317 7.8364
H    -2.4493 -1.4157 7.7551
C    0.0031 -4.1181 1.6024
H    -2.5917 1.0920 4.0005
C    -0.1439 -5.4937 1.4617
C    0.0913 -5.5952 3.8090
H    -2.1831 0.8706 7.9685
H    0.8311 0.3935 0.1341
C    -0.1122 -6.2670 2.5998
H    -3.2362 -1.4577 -0.4095
H    -0.1664 0.5653 -1.9439
C    -2.4438 -5.0070 8.5904
C    -1.8511 -5.1280 9.8362
C    -0.0557 -3.9184 8.9069
C    -0.6214 -4.5700 10.0023
N    0.9750 -0.1878 4.8637
N    1.0919 -0.9061 5.9693
H    -4.0743 -4.1753 0.7540
N    -2.6520 -0.7286 4.6930
N    -2.5862 -1.4939 5.7970
H    -4.5162 -6.4464 0.6320
H    -3.5976 -6.5991 4.4883
N    -0.5579 -0.6512 1.0105
N    -1.7729 -1.2061 0.8490
H    0.0054 -3.5913 0.8353
H    -0.2608 -5.8777 0.6219
H    0.1478 -6.0990 4.5899
H    -3.2750 -5.4005 8.4563
H    -2.2775 -5.5723 10.5343
H    0.7924 -3.5493 8.9999
N    -3.4189 -4.8192 3.7267
N    -3.5357 -4.1009 2.6211
N    0.2082 -4.2784 3.8974
N    0.1424 -3.5131 2.7934
N    -1.8859 -4.3559 7.5798
N    -0.6710 -3.8009 7.7414
C    1.5128 -0.3103 7.0764
C    1.7883 1.0538 7.1602
C    1.6266 1.8065 6.0277
C    1.2374 1.1145 4.8942
C    -2.4469 -0.8890 6.9880
C    -2.2999 0.4867 7.1287
C    -2.3316 1.2600 5.9906
C    -2.5352 0.5882 4.7814
X    -2.0912 -0.5714 -2.1900
X    -4.0223 -7.5239 2.6054
X    -0.0584 -6.9744 2.6082
X    -0.3526 -4.4356 10.7804
X    1.5785 2.5169 5.9850
X    -2.3855 1.9674 5.9822
   0    1 A
   0   21 S
   0   36 A
   1    5 A
   1   24 S
   2    4 S
   2    7 S
   2   32 S
   2   37 S
   2   45 S
   3    5 A
   3   23 S
   3   37 A
   4    6 S
   4   29 S
   4   36 S
   4   47 S
   5   58 S
   6    7 S
   6   30 S
   6   46 S
   6   49 S
   7   33 S
   7   44 S
   7   48 S
   8    9 A
   8   31 S
   8   45 A
   9   11 A
   9   34 S
  10   51 S
  11   12 A
  11   59 S
  12   35 S
  12   44 A
  13   53 S
  14   50 S
  15   54 S
  16   18 A
  16   38 S
  16   47 A
  17   57 S
  18   22 A
  18   39 S
  19   22 A
  19   40 S
  19   46 A
  20   55 S
  22   60 S
  25   26 A
  25   41 S
  25   48 A
  26   28 A
  26   42 S
  27   28 A
  27   43 S
  27   49 A
  28   61 S
  29   30 A
  29   53 A
  30   50 A
  32   33 A
  32   57 A
  33   54 A
  36   37 A
  44   45 A
  46   47 A
  48   49 A
  50   51 A
  51   52 A
  52   53 A
  52   62 S
  54   55 A
  55   56 A
  56   57 A
  56   63 S
