30
   27   28   29
H    0.0000 0.0000 0.0000
H    0.0599 -1.5564 0.1703
H    -2.0719 -0.0196 1.1932
H    -1.8344 -1.5455 1.4817
H    -3.1888 1.8347 -3.0485
H    -3.6231 0.9439 -4.2653
H    -1.0577 2.1002 -3.9697
H    -1.4332 1.1471 -5.1569
H    -2.9121 -3.6401 -4.1932
H    -2.4124 -4.3220 -2.8700
H    -0.6240 -3.2673 -4.7821
H    -0.2079 -4.1149 -3.5334
C    -1.5076 -2.2502 -1.6496
C    -1.7535 0.1747 -1.7891
C    -2.5045 -1.2180 -3.6280
C    -0.5419 -0.8007 0.0769
C    -1.3903 -0.6979 1.3209
C    -2.8750 1.1884 -3.6989
C    -1.7836 1.8137 -4.5456
C    -2.1984 -3.6489 -3.5369
C    -0.8906 -4.0057 -4.2145
N    -2.1062 -2.3255 -2.8901
N    -1.3248 -0.9664 -1.1565
N    -2.3804 -0.0066 -3.0000
O    -2.9603 -1.3292 -4.7395
O    -1.1544 -3.2273 -1.0430
O    -1.5962 1.2699 -1.2972
X    -0.7827 -0.2897 1.4716
X    -2.1382 2.2502 -4.9640
X    -1.0610 -4.8038 -4.2209
   0   15 S
   1   15 S
   2   16 S
   3   16 S
   4   17 S
   5   17 S
   6   18 S
   7   18 S
   8   19 S
   9   19 S
  10   20 S
  11   20 S
  12   21 A
  12   22 A
  12   25 S
  13   22 A
  13   23 A
  13   26 S
  14   21 A
  14   23 A
  14   24 S
  15   16 S
  15   22 S
  16   27 S
  17   18 S
  17   23 S
  18   28 S
  19   20 S
  19   21 S
  20   29 S
