61
   55   56   57   58   59   60
C    0.0000 0.0000 0.0000
Cu   -2.8545 -3.7896 0.9748
C    -0.5825 -2.2904 -0.1703
N    -3.9614 -5.5844 1.1591
C    -1.6936 -0.9610 1.3576
C    -3.5106 -6.4313 2.1199
H    -2.1687 -6.3015 -0.8059
C    0.2115 -1.2251 -0.5546
C    -5.1343 -5.8270 0.5920
C    -0.9229 0.1383 0.9987
C    -4.2503 -7.5351 2.5042
C    -5.4759 -7.7440 1.9496
C    -5.9139 -6.9200 0.9509
H    1.3218 -3.4279 -1.7077
N    -4.1776 -2.8091 -0.3550
H    -6.0228 -8.4570 2.2530
H    -5.4513 -5.2363 -0.0808
H    -3.9056 -8.1417 3.1479
H    1.4455 -5.6298 -2.4283
H    0.3138 -7.2302 4.3779
H    -0.2576 -3.5988 2.7555
H    -1.8034 -7.8476 3.6573
H    0.4900 0.7533 -0.3034
H    -2.3561 -0.8590 2.0304
H    0.8984 -1.3479 -1.1983
C    -6.3883 -2.0114 3.7693
C    -5.2534 -2.2280 1.7006
H    -6.1989 -0.4113 -2.3204
C    -4.2623 -3.0560 3.6158
C    -5.1264 -2.0484 0.2490
H    -3.3529 -3.2385 -2.0910
C    -6.3341 -1.7679 2.4310
C    -4.0154 -2.7068 -1.6662
C    -5.3304 -2.6163 4.3884
C    -5.9205 -1.1828 -0.4814
C    -5.7089 -1.0506 -1.8197
C    -4.7860 -1.8463 -2.4388
H    -6.6073 -0.6868 -0.0532
N    -1.7475 -4.8465 2.4370
H    -7.1544 -1.7625 4.2700
H    -3.5402 -3.5034 4.0405
H    -7.0308 -1.2856 2.0028
N    -1.5313 -2.1477 0.7905
C    -0.2331 -6.6110 3.9120
C    -2.1983 -6.1021 2.6901
N    -4.2200 -2.8689 2.3046
C    -0.5746 -4.4768 2.9306
C    -0.4555 -3.6374 -0.7405
C    -1.4586 -6.9868 3.4538
C    0.6793 -5.3206 -1.9624
C    -1.4467 -5.7100 -0.9810
C    0.2050 -5.3341 3.6977
C    0.6252 -4.0399 -1.5042
C    -0.3785 -6.1592 -1.7481
N    -1.4890 -4.4809 -0.4874
X    -0.6022 0.9016 0.7832
X    -6.8369 -6.9148 1.0833
X    -4.9308 -2.4470 4.8575
X    -5.1067 -2.1162 -2.8971
X    1.1279 -5.2649 3.4637
X    -0.7783 -6.8960 -1.4418
   0    7 A
   0    9 A
   0   22 S
   1    3 S
   1   14 S
   1   38 S
   1   42 S
   1   45 S
   1   54 S
   2    7 A
   2   42 A
   2   47 S
   3    5 A
   3    8 A
   4    9 A
   4   23 S
   4   42 A
   5   10 A
   5   44 S
   6   50 S
   7   24 S
   8   12 A
   8   16 S
   9   55 S
  10   11 A
  10   17 S
  11   12 A
  11   15 S
  12   56 S
  13   52 S
  14   29 A
  14   32 A
  18   49 S
  19   43 S
  20   46 S
  21   48 S
  25   31 A
  25   33 A
  25   39 S
  26   29 S
  26   31 A
  26   45 A
  27   35 S
  28   33 A
  28   40 S
  28   45 A
  29   34 A
  30   32 S
  31   41 S
  32   36 A
  33   57 S
  34   35 A
  34   37 S
  35   36 A
  36   58 S
  38   44 A
  38   46 A
  43   48 A
  43   51 A
  44   48 A
  46   51 A
  47   52 A
  47   54 A
  49   52 A
  49   53 A
  50   53 A
  50   54 A
  51   59 S
  53   60 S
