54
   44   45   46   47   48   49   50   51   52   53
Hf   0.0000 0.0000 0.0000
Hf   1.5016 4.7012 0.0507
Hf   -0.6776 2.8260 -1.9349
Hf   2.6255 1.7771 -1.5245
Hf   2.1982 1.8602 2.0053
Hf   -1.0928 2.9072 1.5384
O    -0.8333 2.7620 3.7135
C    0.1990 2.4328 4.4040
C    1.9850 -1.4067 -2.0116
O    1.3383 2.0741 4.0333
O    2.1555 0.5702 0.1760
O    0.2978 1.3744 1.5061
O    -1.4097 1.7292 -0.1806
O    0.5373 1.1280 -1.6635
C    1.6995 -1.2687 2.3155
O    1.3491 3.6154 -1.7880
O    2.6628 2.9275 0.2326
O    0.9283 3.5504 1.8004
O    0.8214 -1.4461 1.4241
O    -0.5018 3.9840 -0.1409
O    2.1852 -0.2320 2.7938
C    -0.5708 6.0141 1.9872
C    -0.2975 6.0555 -2.2012
O    1.0541 -1.4895 -1.2503
O    2.6764 -0.3167 -2.3257
O    0.0488 2.6181 -4.0124
O    2.2542 1.9263 -3.6898
C    1.3383 2.2278 -4.3463
O    -1.1919 5.0444 2.3410
O    0.4074 6.1876 1.2514
O    -0.7657 4.9458 -2.7049
O    0.6293 6.1580 -1.3522
C    -2.3933 -0.0034 2.0721
C    3.5558 4.7270 2.4712
O    -1.7155 -0.6715 1.2288
O    -2.4244 1.2404 2.2363
O    3.4016 3.4833 2.7796
O    3.0011 5.3893 1.5401
C    3.9049 4.6837 -2.0285
O    -1.4909 -0.6755 -1.4937
C    -2.0483 -0.0605 -2.4672
O    -1.8819 1.1201 -2.7898
O    3.9387 3.4558 -2.1757
O    3.2149 5.3459 -1.1767
X    0.0509 2.4988 5.1356
X    2.2028 -2.0286 -2.3455
X    1.9363 -1.9192 2.6452
X    -0.8178 6.6852 2.2844
X    -0.5844 6.6862 -2.4474
X    1.4580 2.2140 -5.0680
X    -2.8635 -0.3631 2.5108
X    4.0077 5.1173 2.9169
X    4.3399 5.0730 -2.4842
X    -2.5489 -0.4458 -2.8719
   0   10 S
   0   11 S
   0   12 S
   0   13 S
   0   18 S
   0   23 S
   0   34 S
   0   39 S
   1   15 S
   1   16 S
   1   17 S
   1   19 S
   1   29 S
   1   31 S
   1   37 S
   1   43 S
   2   12 S
   2   13 S
   2   15 S
   2   19 S
   2   25 S
   2   30 S
   2   41 S
   3   10 S
   3   13 S
   3   15 S
   3   16 S
   3   24 S
   3   26 S
   3   42 S
   4    9 S
   4   10 S
   4   11 S
   4   16 S
   4   17 S
   4   20 S
   4   36 S
   5    6 S
   5   11 S
   5   12 S
   5   17 S
   5   19 S
   5   28 S
   5   35 S
   6    7 A
   7    9 A
   7   44 S
   8   23 A
   8   24 A
   8   45 S
  14   18 A
  14   20 A
  14   46 S
  21   28 A
  21   29 A
  21   47 S
  22   30 A
  22   31 A
  22   48 S
  25   27 A
  26   27 A
  27   49 S
  32   34 A
  32   35 A
  32   50 S
  33   36 A
  33   37 A
  33   51 S
  38   42 A
  38   43 A
  38   52 S
  39   40 A
  40   41 A
  40   53 S
