17
   13   14   15   16
C    0.0000 0.0000 0.0000
Be   -0.2586 -0.4130 2.5691
O    -0.6343 -1.7907 3.3297
O    1.1603 -3.0902 3.0591
O    1.1372 0.2436 3.0578
O    0.9307 0.4201 5.2733
C    0.0446 -2.8285 3.5233
C    1.5582 0.5037 4.2113
O    -1.4323 0.6525 2.8933
O    -3.2557 -0.2112 1.9384
O    -0.1049 -0.7571 0.9956
O    0.1304 1.2295 0.0055
C    -2.6371 0.6731 2.5418
X    -0.5094 -0.5785 -0.1196
X    -0.2397 -3.0197 4.1769
X    2.3707 0.5188 3.8129
X    -2.6561 1.4276 2.4061
   0   10 S
   0   11 D
   0   13 S
   1    2 S
   1    4 S
   1    8 S
   1   10 S
   2    6 S
   3    6 D
   4    7 S
   5    7 D
   6   14 S
   7   15 S
   8   12 S
   9   12 D
  12   16 S
