77
   71   72   73   74   75   76
C    0.0000 0.0000 0.0000
C    -0.4661 0.6135 1.1164
C    -1.6042 0.1503 1.7202
Cu   -3.4455 -3.8287 5.7725
Cu   -3.6023 -0.6400 7.9076
Cu   -3.4455 1.4986 4.7780
Cu   -3.6023 -1.6901 2.6430
S    -4.7776 -2.2280 6.7666
S    -2.2196 -2.6548 4.2190
S    -4.7776 -0.1021 3.7840
S    -2.2196 0.3247 6.3315
C    -6.4708 -4.7132 0.2039
C    -6.9659 -3.5114 0.7185
C    -6.1237 -2.6650 1.4114
C    -4.3673 -4.1130 1.2015
C    -5.1473 -4.9916 0.4454
H    -0.0138 -3.6733 9.0779
N    -4.8265 -2.9722 1.6590
H    -7.8592 -3.2850 0.5958
H    -6.4583 -1.8549 1.7221
H    -3.4864 -4.3481 1.3876
H    -4.7684 -5.7688 0.1029
C    -6.4708 2.3831 10.3467
C    -6.9659 1.1813 9.8320
C    -6.1237 0.3349 9.1392
N    -4.8265 0.6421 8.8916
C    -4.3673 1.7829 9.3490
C    -5.1473 2.6615 10.1052
H    -7.8592 0.9549 9.9548
H    -6.4583 -0.4752 8.8284
H    -3.4864 2.0180 9.1630
H    -4.7684 3.4387 10.4477
N    -4.7587 -5.1214 4.8052
N    -2.2915 -1.4444 9.2857
N    -4.7587 2.7913 5.7454
H    -3.5376 -6.6544 4.8062
N    -2.2915 -0.8857 1.2649
H    -4.7905 -8.1049 3.6066
H    -6.2758 -3.9120 4.5864
H    -7.6228 -5.2756 3.3018
C    -4.3687 -6.3740 4.4993
C    -5.1017 -7.2468 3.7828
Cl   -2.1458 -5.3332 6.8892
C    -6.7958 -5.5743 3.6007
C    -5.9674 -4.7632 4.3647
Cl   -2.1458 3.0031 3.6614
H    -7.6228 2.9455 7.2488
C    -6.3532 -6.8187 3.3077
H    -2.3247 -0.1386 10.7228
H    -1.9085 -2.9161 8.0663
H    -3.5376 4.3243 5.7444
H    -6.2758 1.5820 5.9641
H    -0.4273 -0.8084 11.7739
H    -0.4273 -1.5217 -1.2233
H    -0.0138 1.3432 1.4727
C    0.0000 -2.3301 10.5506
C    -1.8462 -0.8581 10.3744
H    -2.3247 -2.1915 -0.1722
C    -0.7164 -1.2610 11.0158
H    -1.9085 0.5860 2.4842
C    -1.6042 -2.4803 8.8304
C    -0.4661 -2.9436 9.4342
C    -4.3687 4.0439 6.0512
W    -3.4979 -1.1650 5.2753
C    -5.1017 4.9167 6.7678
C    -6.7958 3.2442 6.9499
C    -5.9674 2.4331 6.1858
C    -6.3532 4.4886 7.2429
H    -4.7905 5.7748 6.9440
C    -1.8462 -1.4719 0.1762
C    -0.7164 -1.0691 -0.4652
X    0.6445 0.3009 -0.2328
X    -6.8988 -5.0875 -0.2401
X    -6.8988 2.7575 10.7907
X    -6.7743 -7.1777 2.8128
X    0.6445 -2.6310 10.7834
X    -6.7743 4.8477 7.7378
   0    1 A
   0   70 A
   0   71 S
   1    2 A
   1   54 S
   2   36 A
   2   59 S
   3    7 S
   3    8 S
   3   32 S
   3   42 S
   3   63 S
   4    7 S
   4   10 S
   4   25 S
   4   33 S
   4   63 S
   5    9 S
   5   10 S
   5   34 S
   5   45 S
   5   63 S
   6    8 S
   6    9 S
   6   17 S
   6   36 S
   6   63 S
   7   63 S
   8   63 S
   9   63 S
  10   63 S
  11   12 A
  11   15 A
  11   72 S
  12   13 A
  12   18 S
  13   17 A
  13   19 S
  14   15 A
  14   17 A
  14   20 S
  15   21 S
  16   61 S
  22   23 A
  22   27 A
  22   73 S
  23   24 A
  23   28 S
  24   25 A
  24   29 S
  25   26 A
  26   27 A
  26   30 S
  27   31 S
  32   40 A
  32   44 A
  33   56 A
  33   60 A
  34   62 A
  34   66 A
  35   40 S
  36   69 A
  37   41 S
  38   44 S
  39   43 S
  40   41 A
  41   47 A
  43   44 A
  43   47 A
  46   65 S
  47   74 S
  48   56 S
  49   60 S
  50   62 S
  51   66 S
  52   58 S
  53   70 S
  55   58 A
  55   61 A
  55   75 S
  56   58 A
  57   69 S
  60   61 A
  62   64 A
  64   67 A
  64   68 S
  65   66 A
  65   67 A
  67   76 S
  69   70 A
