34
   31   32   33
Zn   0.0000 0.0000 0.0000
H    -2.9946 -3.8723 -0.7647
H    -2.2611 -1.9783 0.2510
H    1.1639 -2.2917 -1.2764
C    -2.1292 0.9807 3.5588
C    -1.7017 0.8830 2.2571
C    0.2841 0.2224 2.8642
C    -0.0203 0.3033 4.2067
N    -0.5928 0.3808 1.9205
C    -1.3205 0.6639 4.5745
H    0.6247 -4.2632 -2.3174
N    -0.5928 1.4728 -1.2900
N    -0.5928 -1.8536 -0.6304
C    -1.3204 3.6297 -2.8622
C    -2.1292 2.5917 -2.6287
C    -1.7016 1.5132 -1.8932
C    0.2841 2.3692 -1.6247
C    -0.0203 3.4915 -2.3660
C    -1.3205 -4.2936 -1.7123
C    -2.1293 -3.5724 -0.9301
C    -1.7017 -2.3962 -0.3639
C    0.2841 -2.5916 -1.2394
C    -0.0203 -3.7948 -1.8407
H    -2.9946 1.2739 3.7359
H    -2.2611 1.2065 1.5877
H    1.1639 0.0404 2.6229
H    0.6247 0.1247 4.8508
H    -2.9945 2.5984 -2.9712
H    -2.2611 0.7718 -1.8387
H    1.1639 2.2513 -1.3465
H    0.6247 4.1386 -2.5334
X    -1.7655 0.4426 4.9193
X    -1.2604 4.3927 -2.8085
X    -1.5270 -4.6379 -2.3079
   0    8 S
   0   11 S
   0   12 S
   1   19 S
   2   20 S
   3   21 S
   4    5 A
   4    9 A
   4   23 S
   5    8 A
   5   24 S
   6    7 A
   6    8 A
   6   25 S
   7    9 A
   7   26 S
   9   31 S
  10   22 S
  11   15 A
  11   16 A
  12   20 A
  12   21 A
  13   14 A
  13   17 A
  13   32 S
  14   15 A
  14   27 S
  15   28 S
  16   17 A
  16   29 S
  17   30 S
  18   19 A
  18   22 A
  18   33 S
  19   20 A
  21   22 A
