28
   22   23   24   25   26   27
Cr   0.0000 0.0000 0.0000
C    1.6037 -1.8975 1.5798
Cr   2.7439 -1.5700 -1.1252
C    -2.0989 -1.9084 -0.8091
C    2.6842 1.2188 -0.1837
C    2.5818 -0.9671 -4.0082
C    -1.0438 1.0899 -2.5003
O    0.6341 -1.0877 1.4151
O    1.4529 1.2154 0.1467
O    -1.5688 -1.0748 -0.0031
O    -1.5732 -2.1970 -1.9318
C    1.5386 -3.9584 -2.2976
O    -0.7453 1.1915 -1.2678
O    0.5709 -3.3496 -2.8338
O    3.2683 0.1865 -0.6485
O    2.4878 -2.0945 0.6824
O    3.2155 -1.1287 -2.9138
O    1.3193 -1.1038 -4.0888
O    2.4253 -3.3757 -1.5947
O    -0.8219 0.0504 -3.1822
Cr   -0.0685 -1.6167 -2.9148
O    0.8920 -1.0621 -1.3463
X    1.6056 -2.5175 2.0180
X    -2.6327 -2.5743 -1.0241
X    2.6823 1.8389 0.0831
X    3.1156 -0.3011 -4.2350
X    -1.5396 1.5339 -2.8774
X    2.0338 -4.4028 -2.3925
   0    7 S
   0    8 S
   0    9 S
   0   12 S
   0   21 S
   1    7 A
   1   15 A
   1   22 S
   2   14 S
   2   15 S
   2   16 S
   2   18 S
   2   21 S
   3    9 A
   3   10 A
   3   23 S
   4    8 A
   4   14 A
   4   24 S
   5   16 A
   5   17 A
   5   25 S
   6   12 A
   6   19 A
   6   26 S
  10   20 S
  11   13 A
  11   18 A
  11   27 S
  13   20 S
  17   20 S
  19   20 S
  20   21 S
