19
   15   16   17   18
O    0.0000 0.0000 0.0000
O    -0.7874 -0.9350 1.8205
C    2.1059 -2.9935 -3.7739
Mn   0.7663 -1.4773 -1.3421
O    -0.8239 -0.9870 -2.6842
O    -0.0449 -0.0456 -4.5047
Mn   2.0126 0.0157 -4.5302
Mn   -0.4800 -2.9704 1.8460
O    2.3568 -1.9673 0.0000
O    1.5329 -2.9543 -2.6842
O    2.3200 -2.0196 -4.5047
C    -0.9649 -0.4303 -3.7739
C    -0.5733 0.0388 1.0897
O    1.5775 -2.9090 1.8205
C    2.4974 -2.5244 1.0897
X    2.3963 -3.5705 -4.1464
X    -1.4985 -0.0492 -4.0794
X    -0.8635 0.6160 1.4625
X    3.0312 -2.9053 1.3955
   0    3 S
   0   12 A
   1    7 S
   1   12 A
   2    9 A
   2   10 A
   2   15 S
   3    4 S
   3    8 S
   3    9 S
   4   11 A
   5    6 S
   5   11 A
   6   10 S
   7   13 S
   8   14 A
  11   16 S
  12   17 S
  13   14 A
  14   18 S
