59
   53   54   55   56   57   58
H    0.0000 0.0000 0.0000
H    1.0199 2.1882 -0.5123
H    2.2082 -6.0233 -3.3886
Mn   3.4681 -1.0682 -3.6341
C    0.3845 -1.0449 -4.7827
C    1.8671 -1.4724 -6.4661
C    -0.7147 -1.3664 -5.5829
C    0.8444 -1.7852 -7.3402
H    0.7971 -4.9728 -1.6543
C    -0.4591 -1.7359 -6.8829
C    7.6509 -0.7700 -1.6852
C    6.5517 -1.0916 -2.4854
C    5.0690 -0.6641 -0.8021
C    6.0918 -0.3512 0.0720
C    7.3952 -0.4006 -0.3853
H    0.2243 -0.7629 -3.8902
H    2.7613 -1.5178 -6.7826
H    1.0324 -2.0324 -8.2394
H    -1.1759 -1.9553 -7.4656
N    4.6737 -1.9367 -5.0077
N    2.7625 -2.8702 -3.0946
N    5.2735 -1.0217 -2.0577
N    2.2625 -0.1997 -2.2605
N    4.1737 0.7338 -4.1736
N    1.6627 -1.1148 -5.2105
H    6.9362 -2.1364 -7.2682
H    5.9163 -4.3246 -6.7559
H    4.7279 3.8868 -3.8796
H    6.1391 2.8363 -5.6139
H    6.7119 -1.3735 -3.3779
H    4.1749 -0.6186 -0.4856
H    5.9038 -0.1041 0.9712
H    8.1121 -0.1812 0.1974
C    1.3338 -0.8168 -1.4475
C    0.6914 0.1618 -0.6294
C    1.2447 1.3555 -0.9112
C    2.2345 1.1398 -1.9227
C    3.0272 2.1422 -2.4892
C    3.9089 1.9271 -3.5495
C    2.2066 -5.1054 -3.1455
C    1.4364 -4.5307 -2.2010
C    5.6024 -1.3197 -5.8207
C    1.7527 -3.1420 -2.1663
C    1.0911 -2.1928 -1.3843
C    4.7017 -3.2763 -5.3455
C    6.2448 -2.2982 -6.6387
C    3.0273 -4.0635 -3.7187
C    5.6915 -3.4920 -6.3570
C    3.9090 -4.2787 -4.7790
C    5.1835 1.0056 -5.1019
C    4.7295 2.9689 -4.1226
C    5.4998 2.3943 -5.0672
C    5.8450 0.0563 -5.8839
X    -1.4011 -1.2150 -5.3020
X    8.3373 -0.9214 -1.9662
X    3.0999 2.8094 -2.2026
X    0.5258 -2.3613 -0.9280
X    3.8363 -4.9459 -5.0656
X    6.4104 0.2249 -6.3402
   0   34 S
   1   35 S
   2   39 S
   3   19 S
   3   20 S
   3   21 S
   3   22 S
   3   23 S
   3   24 S
   4    6 A
   4   15 S
   4   24 A
   5    7 A
   5   16 S
   5   24 A
   6    9 A
   6   53 S
   7    9 A
   7   17 S
   8   40 S
   9   18 S
  10   11 A
  10   14 A
  10   54 S
  11   21 A
  11   29 S
  12   13 A
  12   21 A
  12   30 S
  13   14 A
  13   31 S
  14   32 S
  19   41 A
  19   44 A
  20   42 A
  20   46 A
  22   33 A
  22   36 A
  23   38 A
  23   49 A
  25   45 S
  26   47 S
  27   50 S
  28   51 S
  33   34 A
  33   43 A
  34   35 A
  35   36 A
  36   37 A
  37   38 A
  37   55 S
  38   50 A
  39   40 A
  39   46 A
  40   42 A
  41   45 A
  41   52 A
  42   43 A
  43   56 S
  44   47 A
  44   48 A
  45   47 A
  46   48 A
  48   57 S
  49   51 A
  49   52 A
  50   51 A
  52   58 S
