65
   57   58   59   60   61   62   63   64
C    0.0000 0.0000 0.0000
Ni   -4.5367 -3.7055 -1.7081
Ni   -2.2188 -1.0935 -1.7081
H    -8.5155 -4.4071 -4.6343
H    -6.7979 -4.9488 -3.2849
H    -6.1032 -1.1779 -2.4765
H    -7.8735 -0.5531 -3.7435
C    -2.1170 -3.5672 0.0264
N    -6.2500 -3.1331 -2.7725
N    -0.5055 -1.6658 -2.7725
N    -5.6335 -5.1242 -0.6440
N    -1.1221 0.3252 -0.6440
H    1.7600 -0.3917 -4.6343
O    -4.0373 -0.4391 -4.4697
H    -0.6523 -3.6210 -2.4765
H    0.0424 0.1499 -3.2849
O    -2.5187 0.3907 -3.0909
H    1.1181 -4.2458 -3.7435
O    -2.7182 -4.3598 -4.4697
O    -4.9930 -2.3950 -0.2059
O    -4.2368 -5.1896 -3.0909
O    -3.9069 -0.5116 -0.7110
H    -4.4710 -6.6274 -1.1106
H    -5.6564 -8.2958 0.0442
O    -1.7626 -2.4040 -0.2059
O    -2.8486 -4.2873 -0.7110
H    -7.0285 -3.9001 0.0079
H    -8.3346 -5.4763 1.0868
O    -3.3777 -2.3995 -2.8913
H    -2.9576 -3.0077 -3.2123
H    -2.2845 1.8284 -1.1106
H    -1.0992 3.4968 0.0442
H    1.5790 0.6773 1.0868
H    0.2730 -0.8989 0.0079
H    -3.7979 -1.7913 -3.2123
C    -8.4363 -2.3943 -4.3291
C    -8.0473 -3.7285 -4.1823
C    -7.0070 -4.0409 -3.4000
C    -6.6057 -1.8386 -2.9140
C    -7.6624 -1.4660 -3.6676
C    -3.2500 0.4687 -4.1183
C    1.6808 -2.4046 -4.3291
C    1.2918 -1.0704 -4.1823
C    0.2516 -0.7580 -3.4000
C    -0.1498 -2.9603 -2.9140
C    0.9069 -3.3329 -3.6676
C    -3.5055 -5.2676 -4.1183
C    -5.2491 -6.3931 -0.6421
C    -5.9647 -7.4085 0.0376
C    -7.1583 -7.0474 0.7047
C    -7.5381 -5.7439 0.6648
C    -6.7555 -4.7990 0.0000
C    -4.6385 -1.2318 0.0264
C    -1.5064 1.5941 -0.6421
C    -0.7908 2.6095 0.0376
C    0.4027 2.2484 0.7047
C    0.7826 0.9449 0.6648
X    -1.7112 -3.7919 0.5782
X    -9.1216 -2.1171 -4.5647
X    -3.0863 0.8339 -4.8123
X    2.0002 -2.8912 -4.6851
X    -4.0267 -5.8374 -4.0023
X    -7.5682 -7.2398 1.4097
X    -4.5099 -0.7010 0.3390
X    1.1486 2.6332 0.5432
   0   11 A
   0   33 S
   0   56 A
   1    8 S
   1   10 S
   1   19 S
   1   20 S
   1   25 S
   1   28 S
   2    9 S
   2   11 S
   2   16 S
   2   21 S
   2   24 S
   2   28 S
   3   36 S
   4   37 S
   5   38 S
   6   39 S
   7   24 A
   7   25 A
   7   57 S
   8   37 A
   8   38 A
   9   43 A
   9   44 A
  10   47 A
  10   51 A
  11   53 A
  12   42 S
  13   40 D
  14   44 S
  15   43 S
  16   40 S
  17   45 S
  18   46 D
  19   52 A
  20   46 S
  21   52 A
  22   47 S
  23   48 S
  26   51 S
  27   50 S
  28   29 S
  28   34 S
  30   53 S
  31   54 S
  32   56 S
  35   36 A
  35   39 A
  35   58 S
  36    3 S
  36   37 A
  38   39 A
  40   59 S
  41   42 A
  41   45 A
  41   60 S
  42   43 A
  44   45 A
  46   61 S
  47   48 A
  48   49 A
  49   50 A
  49   62 S
  50   51 A
  52   63 S
  53   54 A
  54   31 S
  54   55 A
  55   56 A
  55   64 S
  56   32 S
  64   55 S
