55
   49   50   51   52   53   54
Cd   0.0000 0.0000 0.0000
H    -2.2760 2.0075 1.4980
H    -1.9855 3.9372 2.9379
H    0.9359 -2.8869 1.4980
H    2.8217 -3.3885 2.9379
H    0.9359 0.6141 -3.1939
H    2.8217 1.8516 -4.0847
H    -0.9359 2.8869 -1.4980
H    -2.8217 3.3885 -2.9379
H    2.2760 -2.0075 -1.4980
H    1.9855 -3.9372 -2.9379
H    -0.9359 -0.6141 3.1939
H    -2.8217 -1.8516 4.0847
H    -2.9726 -1.9507 0.1701
H    -1.5430 -2.5709 -1.9184
H    -2.9726 -0.3923 -1.9184
H    2.9726 1.9507 -0.1701
H    2.9726 0.3923 1.9184
H    1.5430 2.5709 1.9184
C    0.6207 2.6662 1.9895
C    -1.4584 2.3623 1.7627
C    -1.3086 3.4253 2.5559
C    2.6930 -0.4917 1.9895
C    1.5867 -2.2781 1.7627
C    2.6215 -2.5637 2.5559
C    2.6930 1.7672 -1.0377
C    1.5867 1.0412 -2.6856
C    2.6215 1.7203 -3.1853
C    -2.6930 0.4917 -1.9895
C    -1.5867 2.2781 -1.7627
C    -2.6215 2.5637 -2.5559
C    -0.6207 -2.6662 -1.9895
C    1.4584 -2.3623 -1.7627
C    1.3086 -3.4253 -2.5559
C    -2.6930 -1.7672 1.0377
C    -1.5867 -1.0412 2.6856
C    -2.6215 -1.7203 3.1853
N    -1.6200 -1.0631 1.3305
N    0.2477 -1.8734 -1.3979
N    -1.6200 0.9728 -1.3979
N    1.6200 1.0631 -1.3305
N    1.6200 -0.9728 1.3979
N    -0.2477 1.8734 1.3979
N    0.0276 3.6138 2.6966
N    3.3263 -1.4130 2.6966
N    3.3263 2.1828 -2.1222
N    -3.3263 1.4130 -2.6966
N    -0.0276 -3.6138 -2.6966
N    -3.3263 -2.1828 2.1222
X    0.0285 4.0187 3.1999
X    3.7672 -1.2367 3.2601
X    3.7672 2.7628 -1.8308
X    -3.7672 1.2367 -3.2601
X    -0.0285 -4.0187 -3.1999
X    -3.7672 -2.7628 1.8308
   0   37 S
   0   38 S
   0   39 S
   0   40 S
   0   41 S
   0   42 S
   1   20 S
   2   21 S
   3   23 S
   4   24 S
   5   26 S
   6   27 S
   7   29 S
   8   30 S
   9   32 S
  10   33 S
  11   35 S
  12   36 S
  13   34 S
  14   31 S
  15   28 S
  16   25 S
  17   22 S
  18   19 S
  19   42 A
  19   43 A
  20   21 A
  20   42 A
  21   43 A
  22   41 A
  22   44 A
  23   24 A
  23   41 A
  24   44 A
  25   40 A
  25   45 A
  26   27 A
  26   40 A
  27   45 A
  28   39 A
  28   46 A
  29   30 A
  29   39 A
  30   46 A
  31   38 A
  31   47 A
  32   33 A
  32   38 A
  33   47 A
  34   37 A
  34   48 A
  35   36 A
  35   37 A
  36   48 A
  43   49 S
  44   50 S
  45   51 S
  46   52 S
  47   53 S
  48   54 S
