17
   13   14   15   16
Mg   0.0000 0.0000 0.0000
C    1.2748 0.5870 2.8733
C    -1.2748 -0.5870 -2.8733
O    1.5385 -1.4089 -0.0533
O    3.4887 -0.6403 0.7209
O    0.4016 0.4868 1.9982
O    2.4839 0.2035 2.7616
O    -1.5385 1.4089 0.0533
O    -3.4887 0.6403 -0.7209
O    -0.4016 -0.4868 -1.9982
C    2.7633 -1.2931 -0.1421
C    -2.7633 1.2931 0.1421
O    -2.4839 -0.2035 -2.7616
X    1.3770 1.2249 3.1598
X    -1.3770 -1.2249 -3.1598
X    2.8811 -1.9062 -0.4743
X    -2.8811 1.9062 0.4743
   0    3 S
   0    5 S
   0    7 S
   0    9 S
   1    5 S
   1    6 D
   1   13 S
   2    9 S
   2   12 D
   2   14 S
   3   10 S
   4   10 D
   7   11 S
   8   11 D
  10   15 S
  11   16 S
