28
   22   23   24   25   26   27
Cd   0.0000 0.0000 0.0000
Na   0.0480 3.1403 -1.6410
C    1.1465 0.9475 2.8188
C    -2.4340 0.6401 -0.8883
C    2.5417 0.6536 -0.9588
O    -2.4022 -0.2634 -0.2524
O    -1.4613 1.4793 -0.9668
O    2.5310 0.0037 0.0696
O    1.4466 1.0811 -1.4680
O    0.2903 1.2031 1.8709
O    2.0052 0.0692 2.8651
Cd   2.3537 -1.7272 1.5843
Na   2.3056 -4.8675 3.2253
C    1.2071 -2.6746 -1.2345
C    4.7876 -2.3672 2.4726
C    -0.1881 -2.3807 2.5431
O    4.7558 -1.4638 1.8367
O    3.8149 -3.2065 2.5511
O    -0.1774 -1.7308 1.5146
O    0.9070 -2.8083 3.0522
O    2.0634 -2.9303 -0.2866
O    0.3485 -1.7964 -1.2808
X    1.1115 1.4870 3.3507
X    -3.0828 0.8395 -1.3291
X    3.2122 0.9461 -1.1031
X    1.2422 -3.2141 -1.7664
X    5.4365 -2.5666 2.9134
X    -0.8585 -2.6732 2.6874
   0    5 S
   0    6 S
   0    7 S
   0    8 S
   0    9 S
   0   18 S
   0   21 S
   1    6 S
   1    8 S
   2    9 A
   2   10 A
   2   22 S
   3    5 D
   3    6 S
   3   23 S
   4    7 A
   4    8 A
   4   24 S
   7   11 S
  10   11 S
  11   16 S
  11   17 S
  11   18 S
  11   19 S
  11   20 S
  12   17 S
  12   19 S
  13   20 A
  13   21 A
  13   25 S
  14   16 D
  14   17 S
  14   26 S
  15   18 A
  15   19 A
  15   27 S
