102
   96   97   98   99  100  101
N    0.0000 0.0000 0.0000
N    0.0091 0.9285 1.0100
Cu   1.5685 2.1188 1.0311
Cu   3.6998 -2.2678 -1.2243
Cu   5.9552 -0.1366 3.1624
Cu   5.9275 -2.2955 0.9346
Cu   3.7963 2.0912 3.1900
O    5.6263 -2.1899 -0.9684
Cu   1.5409 -0.0401 -1.1967
O    5.6993 1.7900 3.0845
O    1.6464 1.8629 -0.8955
O    1.8697 2.0133 2.9341
H    5.9380 -1.4471 -1.2773
O    1.7968 -1.9666 -1.1187
O    5.8496 -2.0396 2.8612
H    1.9159 4.5248 -1.3814
H    2.1537 6.0580 -1.0621
H    0.9919 5.2699 -0.3306
H    5.3650 4.9506 3.7344
H    5.8564 6.0489 2.7063
H    6.3660 4.5543 2.5704
H    6.1123 -1.9204 -3.6303
H    5.7930 -1.6826 -5.1634
H    5.0615 -2.8444 -4.3753
H    0.9965 1.5287 -4.0560
H    2.0246 2.0201 -5.1544
H    2.1605 2.5296 -3.6597
H    6.0082 2.1016 2.3417
H    8.3612 2.2760 2.8150
H    9.8943 1.9567 2.5772
H    9.1062 1.2252 3.7390
H    8.7869 -2.8399 -0.6341
H    9.8853 -1.8117 -1.1255
H    8.3906 -1.6759 -1.6351
H    2.3892 2.1718 -1.2071
H    1.5581 1.2705 3.2430
H    5.5801 -4.7015 3.3472
H    5.3424 -6.2346 3.0279
H    6.5041 -5.4465 2.2964
H    2.1311 -5.1272 -1.7687
H    1.6396 -6.2256 -0.7405
H    1.1301 -4.7309 -0.6047
H    1.3837 1.7438 5.5960
H    1.7030 1.5060 7.1292
H    2.4345 2.6678 6.3411
H    6.4996 -1.7053 6.0218
H    5.4714 -2.1967 7.1201
H    5.3356 -2.7063 5.6254
H    1.4879 -2.2783 -0.3759
H    -0.8651 -2.4526 -0.8493
H    -2.3983 -2.1333 -0.6115
H    -1.6102 -1.4018 -1.7732
H    -1.2909 2.6633 2.5998
H    -2.3892 1.6351 3.0913
H    -0.8945 1.4992 3.6008
H    5.1068 -2.3485 3.1728
C    1.8910 5.2042 -0.6885
C    2.8240 4.8351 0.3941
C    3.8907 5.5462 0.9081
C    4.4501 4.8011 1.9204
C    5.6119 5.1182 2.8105
C    5.4194 -1.9454 -4.3097
C    4.3368 -1.0123 -3.9405
C    3.8228 0.0544 -4.6516
C    2.8105 0.6137 -3.9066
C    1.9204 1.7755 -4.2236
C    9.0406 1.5830 2.8399
C    8.6714 0.5005 1.9069
C    9.3825 -0.0136 0.8402
C    8.6375 -1.0259 0.2808
C    8.9545 -1.9159 -0.8810
C    5.6051 -5.3809 2.6542
C    4.6720 -5.0117 1.5717
C    3.6054 -5.7228 1.0576
C    3.0460 -4.9777 0.0453
C    1.8842 -5.2948 -0.8447
C    2.0767 1.7687 6.2754
C    3.1592 0.8357 5.9063
C    3.6733 -0.2310 6.6174
C    4.6856 -0.7904 5.8723
C    5.5756 -1.9521 6.1893
C    -1.5445 -1.7596 -0.8742
C    -1.1754 -0.6771 0.0589
C    -1.8865 -0.1631 1.1255
C    -1.1414 0.8493 1.6849
C    -1.4584 1.7393 2.8467
N    2.7652 3.6597 1.0712
N    3.7752 3.6506 1.9997
N    3.6597 -1.0712 -2.7652
N    2.7312 -0.0611 -2.7561
N    7.4961 -0.1766 1.9657
N    7.4870 -1.1052 0.9557
N    4.7309 -3.8364 0.8945
N    3.7209 -3.8273 -0.0340
N    3.8364 0.8945 4.7309
N    4.7649 -0.1155 4.7218
X    4.0662 6.2138 0.7100
X    4.0209 0.2299 -5.3193
X    10.0502 0.1846 0.6647
X    3.4298 -6.3904 1.2558
X    3.4751 -0.4065 7.2850
X    -2.5541 -0.3612 1.3011
   0    1 A
   0    8 S
   0   82 A
   1    2 S
   1   84 A
   2   10 S
   2   11 S
   2   86 S
   3    7 S
   3   13 S
   3   88 S
   3   93 S
   4    9 S
   4   14 S
   4   90 S
   4   95 S
   5    7 S
   5   14 S
   5   91 S
   5   92 S
   6    9 S
   6   11 S
   6   87 S
   6   94 S
   7   12 S
   8   10 S
   8   13 S
   8   89 S
   9   27 S
  10   34 S
  11   35 S
  13   48 S
  14   55 S
  15   56 S
  16   56 S
  17   56 S
  18   60 S
  19   60 S
  20   60 S
  21   61 S
  22   61 S
  23   61 S
  24   65 S
  25   65 S
  26   65 S
  28   66 S
  29   66 S
  30   66 S
  31   70 S
  32   70 S
  33   70 S
  36   71 S
  37   71 S
  38   71 S
  39   75 S
  40   75 S
  41   75 S
  42   76 S
  43   76 S
  44   76 S
  45   80 S
  46   80 S
  47   80 S
  49   81 S
  50   81 S
  51   81 S
  52   85 S
  53   85 S
  54   85 S
  56   57 S
  57   58 A
  57   86 A
  58   59 A
  58   96 S
  59   60 S
  59   87 A
  61   62 S
  62   63 A
  62   88 A
  63   64 A
  63   97 S
  64   65 S
  64   89 A
  66   67 S
  67   68 A
  67   90 A
  68   69 A
  68   98 S
  69   70 S
  69   91 A
  71   72 S
  72   73 A
  72   92 A
  73   74 A
  73   99 S
  74   75 S
  74   93 A
  76   77 S
  77   78 A
  77   94 A
  78   79 A
  78  100 S
  79   80 S
  79   95 A
  81   82 S
  82   83 A
  83   84 A
  83  101 S
  84   85 S
  86   87 A
  88   89 A
  90   91 A
  92   93 A
  94   95 A
