16
   12   13   14   15
C    0.0000 0.0000 0.0000
C    -1.2964 4.1160 -0.0464
C    0.5372 2.3610 0.0290
C    0.9424 1.0299 0.0470
C    -0.8263 2.6776 0.0000
O    -2.1820 4.3736 -0.9092
O    -0.7738 4.9177 0.7531
C    0.4701 -1.4383 -0.0464
C    -1.3635 0.3165 0.0290
C    -1.7687 1.6477 0.0470
O    1.3557 -1.6961 -0.9092
O    -0.0525 -2.2401 0.7531
X    1.0670 2.9213 -0.2038
X    1.6720 0.9138 0.2033
X    -1.8933 -0.1990 0.3340
X    -2.4983 1.8569 0.0409
   0    3 A
   0    7 S
   0    8 A
   1    4 S
   1    5 A
   1    6 A
   2    3 A
   2    4 A
   2   12 S
   3   13 S
   4    9 A
   7   10 A
   7   11 A
   8    9 A
   8   14 S
   9   15 S
