20
   16   17   18   19
O    0.0000 0.0000 0.0000
Zn   -1.1482 -5.4011 0.2565
C    -2.8279 -3.2417 -0.8108
C    0.7599 -3.8310 1.6790
Zn   -0.9198 -1.6715 0.6117
O    -2.2763 -1.4039 1.9489
O    0.2083 -5.6688 -1.0807
O    -1.4556 -6.0386 -2.5279
O    -0.6124 -1.0341 3.3961
O    -0.0610 -4.7843 1.7932
O    0.6179 -2.8287 0.9006
O    -2.0070 -2.2884 -0.9250
O    -2.6860 -4.2440 -0.0324
C    -0.2546 -6.0239 -2.2378
C    -1.8135 -1.0487 3.1059
O    -2.0680 -7.0727 0.8682
X    -3.3859 -3.2872 -1.3641
X    1.3179 -3.7855 2.2323
X    0.3829 -6.0216 -2.5935
X    -2.4509 -1.0511 3.4617
   0    4 S
   1    6 S
   1    9 S
   1   12 S
   1   15 S
   2   11 A
   2   12 A
   2   16 S
   3    9 A
   3   10 A
   3   17 S
   4    5 S
   4   10 S
   4   11 S
   5   14 S
   6   13 S
   7   13 D
   8   14 D
  13   18 S
  14   19 S
