31
   25   26   27   28   29   30
Mn   0.0000 0.0000 0.0000
H    -3.4886 -2.8034 4.0634
H    -0.0804 -2.5918 1.8898
H    -2.8857 0.1186 1.3205
H    3.4886 2.8034 -4.0634
H    0.0804 2.5918 -1.8898
H    2.8857 -0.1186 -1.3205
C    2.5714 -0.7706 1.6159
C    -3.4125 -1.2610 2.7231
C    -2.9558 -2.3896 3.3946
C    -1.7005 -2.9033 3.0683
C    -0.9366 -2.2432 2.1081
C    -2.5775 -0.6578 1.7732
C    -2.5714 0.7706 -1.6159
C    3.4125 1.2610 -2.7231
C    2.9558 2.3896 -3.3946
C    1.7005 2.9033 -3.0683
C    0.9366 2.2432 -2.1081
C    2.5775 0.6578 -1.7732
N    -1.3607 -1.1355 1.4782
N    1.3607 1.1355 -1.4782
O    2.8533 -1.7966 0.9231
O    1.5473 -0.0657 1.4849
O    -2.8533 1.7966 -0.9231
O    -1.5473 0.0657 -1.4849
X    3.1664 -0.7863 2.1367
X    -3.8880 -0.7696 2.8089
X    -1.7200 -3.5214 3.4046
X    -3.1664 0.7863 -2.1367
X    3.8880 0.7696 -2.8089
X    1.7200 3.5214 -3.4046
   0   19 S
   0   20 S
   0   22 S
   0   24 S
   1    9 S
   2   11 S
   3   12 S
   4   15 S
   5   17 S
   6   18 S
   7   21 D
   7   22 S
   7   25 S
   8    9 A
   8   12 A
   8   26 S
   9   10 A
  10   11 A
  10   27 S
  11   19 A
  12   19 A
  13   23 D
  13   24 S
  13   28 S
  14   15 A
  14   18 A
  14   29 S
  15   16 A
  16   17 A
  16   30 S
  17   20 A
  18   20 A
