13
   10   11   12
C    0.0000 0.0000 0.0000
O    -1.9248 0.8817 2.7423
O    -2.3104 2.9947 2.2636
C    -3.0623 2.2840 -2.0016
O    -2.9643 1.0603 -1.6798
C    -2.0373 2.1005 3.0802
O    -2.9444 3.1909 -1.1625
O    -0.8953 -0.8893 0.0644
O    -0.2555 1.2201 0.1550
Cd   -2.5189 1.0988 0.5272
X    0.7106 -0.1963 -0.1370
X    -3.1785 2.4093 -2.7506
X    -1.9750 2.2601 3.8252
   0    7 A
   0    8 A
   0   10 S
   1    5 A
   1    9 S
   2    5 A
   2    9 S
   3    4 S
   3    6 D
   3   11 S
   4    9 S
   5   12 S
   7    9 S
   8    9 S
