20
   16   17   18   19
H    0.0000 0.0000 0.0000
O    0.2896 0.4116 -0.6468
H    1.1027 -1.6993 -4.9616
O    0.8131 -2.1109 -4.3148
H    -0.0314 0.3080 -3.8625
H    2.3320 0.1046 -3.7212
H    2.2294 -0.0153 -2.1586
H    1.1341 -2.0074 -1.0991
H    -1.2294 -1.8040 -1.2404
C    0.4247 0.5339 -3.0248
H    -1.1267 -1.6841 -2.8030
C    -0.4620 0.0357 -1.8377
C    1.7725 -0.2091 -2.9926
C    0.6780 -2.2333 -1.9368
C    -0.6698 -1.4902 -1.9690
C    1.5646 -1.7351 -3.1239
X    0.8467 1.0929 -3.4493
X    -0.9494 0.6396 -1.7645
X    0.2559 -2.7923 -1.5123
X    2.0521 -2.3389 -3.1972
   0    1 S
   1   11 S
   2    3 S
   3   15 S
   4    9 S
   5   12 S
   6   12 S
   7   13 S
   8   14 S
   9   11 S
   9   12 S
   9   16 S
  10   14 S
  11   14 S
  11   17 S
  12   15 S
  13   14 S
  13   15 S
  13   18 S
  15   19 S
