21
   17   18   19   20
H    0.0000 0.0000 0.0000
O    -1.2951 3.1649 -0.1522
O    0.3994 2.5981 1.1826
O    -1.2951 1.1240 -2.1931
O    0.3994 -0.2108 -1.6263
Co   -2.1562 1.2838 -0.3120
Co   -0.8449 -1.0633 2.0351
O    -0.4501 0.3295 0.6423
O    -3.0380 -0.5441 -0.6182
O    -2.0884 -2.0327 0.7569
C    -2.8062 -1.6946 -0.2349
C    -0.3083 3.4353 0.5622
O    -3.0380 1.5900 1.5159
O    -2.0884 0.2148 3.0045
H    0.0000 0.9718 0.9718
C    -2.8062 1.2067 2.6664
C    -0.3083 0.4096 -2.4636
X    -3.1027 -2.2548 -0.6294
X    -0.1142 4.1722 0.6535
X    -3.1027 1.6012 3.2265
X    -0.1142 0.3182 -3.2004
   0    7 S
   1    5 S
   1   11 S
   2   11 D
   3    5 S
   3   16 S
   4   16 D
   5    7 S
   5    8 S
   5   12 S
   6    7 S
   6    9 S
   6   13 S
   7   14 S
   8   10 A
   9   10 A
  10   17 S
  11   18 S
  12   15 A
  13   15 A
  15   19 S
  16   20 S
