29
   23   24   25   26   27   28
Cd   0.0000 0.0000 0.0000
Cu   -2.1299 -2.8673 0.2079
C    0.8055 -3.1188 0.0586
C    -4.2945 -3.9944 0.3104
Cu   2.1299 2.8673 -0.2079
C    1.5541 1.3207 -2.5975
Cl   -1.8979 -1.1362 -1.3559
Cl   1.8979 1.1362 1.3559
O    0.3608 3.6049 -0.2255
O    4.0766 2.8172 -0.1494
O    -1.0994 1.9445 0.1171
O    3.3570 4.8407 -0.3895
C    -0.8055 3.1188 -0.0586
C    4.2945 3.9944 -0.3104
O    -0.8785 -0.5183 2.0432
O    -2.0888 -2.3867 2.1439
O    -0.3608 -3.6049 0.2255
O    -4.0766 -2.8172 0.1494
O    1.0994 -1.9445 -0.1171
O    -3.3570 -4.8407 0.3895
O    0.8785 0.5183 -2.0432
O    2.0888 2.3867 -2.1439
C    -1.5541 -1.3207 2.5975
X    1.3652 -3.6123 0.1084
X    -5.0030 -4.2873 0.3090
X    1.7035 1.2300 -3.3502
X    -1.3652 3.6123 -0.1084
X    5.0030 4.2873 -0.3090
X    -1.7035 -1.2300 3.3502
   0    6 S
   0    7 S
   0   10 S
   0   14 S
   0   18 S
   0   20 S
   1    6 S
   1   15 S
   1   16 S
   1   17 S
   1   19 S
   2   16 A
   2   18 A
   2   23 S
   3   17 A
   3   19 A
   3   24 S
   4    7 S
   4    8 S
   4    9 S
   4   11 S
   4   21 S
   5   20 A
   5   21 A
   5   25 S
   8   12 A
   9   13 A
  10   12 A
  11   13 A
  12   26 S
  13   27 S
  14   22 A
  15   22 A
  22   28 S
  24    3 S
  27   13 S
