89
   81   82   83   84   85   86   87   88
Eu   0.0000 0.0000 0.0000
H    -1.3148 3.4354 -1.5303
H    -1.4362 4.3001 -3.6642
H    -2.7241 0.6807 -4.9957
H    -4.8017 -0.2502 -3.3214
H    -4.0928 -3.9923 -2.0097
H    -1.8937 -3.3900 -1.5390
H    1.3148 -3.4354 -1.5303
H    1.4362 -4.3001 -3.6642
H    2.7241 -0.6807 -4.9957
H    4.8017 0.2502 -3.3214
H    4.0928 3.9923 -2.0097
H    1.8937 3.3900 -1.5390
H    3.4354 1.3148 1.5303
H    4.3001 1.4362 3.6642
H    0.6807 2.7241 4.9957
H    -0.2502 4.8017 3.3214
H    -3.9923 4.0928 2.0097
H    -3.3900 1.8937 1.5390
H    -3.4354 -1.3148 1.5303
H    -4.3001 -1.4362 3.6642
H    -0.6807 -2.7241 4.9957
H    0.2502 -4.8017 3.3214
H    3.9923 -4.0928 2.0097
H    3.3900 -1.8937 1.5390
C    -1.6202 2.8860 -2.2432
C    -1.6779 3.3950 -3.5027
C    -2.0961 2.5781 -4.5622
C    -2.4493 1.2572 -4.2927
C    -2.3941 0.7948 -2.9885
C    -2.9019 -0.5446 -2.6494
C    -4.2093 -0.9039 -2.9686
C    -4.6546 -2.1942 -2.7786
C    -3.7911 -3.1129 -2.2022
C    -2.4886 -2.7461 -1.9066
C    1.6202 -2.8860 -2.2432
C    1.6779 -3.3950 -3.5027
C    2.0961 -2.5781 -4.5622
C    2.4493 -1.2572 -4.2927
C    2.3941 -0.7948 -2.9885
C    2.9019 0.5446 -2.6494
C    4.2093 0.9039 -2.9686
C    4.6546 2.1942 -2.7786
C    3.7911 3.1129 -2.2022
C    2.4886 2.7461 -1.9066
C    2.8860 1.6202 2.2432
C    3.3950 1.6779 3.5027
C    2.5781 2.0961 4.5622
C    1.2572 2.4493 4.2927
C    0.7948 2.3941 2.9885
C    -0.5446 2.9019 2.6494
C    -0.9039 4.2093 2.9686
C    -2.1942 4.6546 2.7786
C    -3.1129 3.7911 2.2022
C    -2.7461 2.4886 1.9066
C    -2.8860 -1.6202 2.2432
C    -3.3950 -1.6779 3.5027
C    -2.5781 -2.0961 4.5622
C    -1.2572 -2.4493 4.2927
C    -0.7948 -2.3941 2.9885
C    0.5446 -2.9019 2.6494
C    0.9039 -4.2093 2.9686
C    2.1942 -4.6546 2.7786
C    3.1129 -3.7911 2.2022
C    2.7461 -2.4886 1.9066
N    -1.9869 1.6165 -1.9936
N    -2.0544 -1.4951 -2.1327
N    1.9869 -1.6165 -1.9936
N    2.0544 1.4951 -2.1327
N    1.6165 1.9869 1.9936
N    -1.4951 2.0544 2.1327
N    -1.6165 -1.9869 1.9936
N    1.4951 -2.0544 2.1327
O    -1.9305 1.1676 -0.7477
O    -0.8107 -1.1860 -1.9228
O    1.9305 -1.1676 -0.7477
O    0.8107 1.1860 -1.9228
O    1.1676 1.9305 0.7477
O    -1.1860 0.8107 1.9228
O    -1.1676 -1.9305 0.7477
O    1.1860 -0.8107 1.9228
X    -2.1688 2.9124 -5.3845
X    -5.4848 -2.4016 -3.0121
X    2.1688 -2.9123 -5.3845
X    5.4849 2.4016 -3.0121
X    2.9124 2.1688 5.3845
X    -2.4016 5.4849 3.0121
X    -2.9123 -2.1688 5.3845
X    2.4016 -5.4848 3.0121
   0   73 S
   0   74 S
   0   75 S
   0   76 S
   0   77 S
   0   78 S
   0   79 S
   0   80 S
   1   25 S
   2   26 S
   3   28 S
   4   31 S
   5   33 S
   6   34 S
   7   35 S
   8   36 S
   9   38 S
  10   41 S
  11   43 S
  12   44 S
  13   45 S
  14   46 S
  15   48 S
  16   51 S
  17   53 S
  18   54 S
  19   55 S
  20   56 S
  21   58 S
  22   61 S
  23   63 S
  24   64 S
  25   26 A
  25   65 A
  26   27 A
  27   28 A
  27   81 S
  28   29 A
  29   30 S
  29   65 A
  30   31 A
  30   66 A
  31   32 A
  32   33 A
  32   82 S
  33   34 A
  34   66 A
  35   36 A
  35   67 A
  36   37 A
  37   38 A
  37   83 S
  38   39 A
  39   40 S
  39   67 A
  40   41 A
  40   68 A
  41   42 A
  42   43 A
  42   84 S
  43   44 A
  44   68 A
  45   46 A
  45   69 A
  46   47 A
  47   48 A
  47   85 S
  48   49 A
  49   50 S
  49   69 A
  50   51 A
  50   70 A
  51   52 A
  52   53 A
  52   86 S
  53   54 A
  54   70 A
  55   56 A
  55   71 A
  56   57 A
  57   58 A
  57   87 S
  58   59 A
  59   60 S
  59   71 A
  60   61 A
  60   72 A
  61   62 A
  62   63 A
  62   88 S
  63   64 A
  64   72 A
  65   73 S
  66   74 S
  67   75 S
  68   76 S
  69   77 S
  70   78 S
  71   79 S
  72   80 S
