40
   34   35   36   37   38   39
Zn   0.0000 0.0000 0.0000
C    4.4672 0.4318 -4.2111
Zn   3.4766 -2.4031 -4.0425
C    -2.6069 -0.5088 1.1297
Zn   3.5295 0.0593 -1.2303
H    -2.3345 -1.9245 -1.6569
H    -3.1971 -3.1923 -3.3786
N    0.4209 -1.1379 -1.5989
N    1.7302 -2.0429 -3.1213
N    1.6985 -1.2115 -2.0496
O    1.0457 -0.5971 1.5474
O    3.1586 -0.4337 0.7814
H    0.4902 -3.8770 -4.9414
H    -1.7970 -4.1601 -5.0066
O    3.4444 -3.3631 -5.7220
O    3.1202 -5.4623 -4.9200
O    0.3883 1.8203 -0.7062
C    2.3230 -0.5493 1.7008
O    2.5814 1.9222 -1.1610
C    -0.3748 -1.9499 -2.3755
C    -1.7873 -2.2493 -2.3341
C    -2.2810 -3.0366 -3.3389
O    4.8332 -1.5912 -1.1658
O    4.7632 -3.1667 -2.7753
O    3.8994 -0.6066 -4.7888
O    4.2185 0.7906 -3.0647
C    3.3921 -4.6553 -5.8457
O    -1.8586 0.3024 0.4442
O    -2.3201 -1.7019 1.4059
C    1.5369 2.4572 -0.8038
C    5.2872 -2.5982 -1.7459
C    0.4619 -2.5283 -3.3484
C    -0.0645 -3.4401 -4.3373
C    -1.4196 -3.6320 -4.3405
X    4.6733 0.5853 -4.8840
X    -2.9675 0.0772 1.2922
X    3.0041 -0.4675 2.0248
X    3.0313 -5.1545 -6.1180
X    1.7430 3.1372 -1.2658
X    5.9684 -3.0201 -1.6237
   0    7 S
   0   10 S
   0   16 S
   0   27 S
   1   24 A
   1   25 A
   1   34 S
   2    8 S
   2   14 S
   2   23 S
   2   24 S
   3   27 S
   3   28 D
   3   35 S
   4    9 S
   4   11 S
   4   18 S
   4   22 S
   4   25 S
   5   20 S
   6   21 S
   7    9 A
   7   19 A
   8    9 A
   8   31 A
  10   17 A
  11   17 A
  12   32 S
  13   33 S
  14   26 S
  15   26 D
  16   29 A
  17   36 S
  18   29 A
  19   20 A
  19   31 A
  20   21 A
  21   33 A
  22   30 A
  23   30 A
  26   37 S
  29   38 S
  30   39 S
  31   32 A
  32   33 A
