26
   20   21   22   23   24   25
Sm   0.0000 0.0000 0.0000
Sm   3.9363 1.0059 -0.0610
C    1.4907 2.3726 1.9732
C    2.0164 2.3909 -1.7931
C    -1.7062 -1.8090 -1.5220
C    2.4457 -1.3667 -2.0342
C    1.9199 -1.3850 1.7321
C    5.6425 2.8150 1.4610
O    0.5071 1.6541 1.6994
O    1.5433 1.4831 -1.0453
O    3.2357 2.6629 -1.7631
O    2.6565 2.2546 1.4964
O    -1.2176 -2.2146 -0.4514
O    -1.6110 -0.5943 -1.8694
O    3.4293 -0.6481 -1.7604
O    2.3931 -0.4772 0.9843
O    0.7006 -1.6570 1.7021
O    1.2799 -1.2487 -1.5574
O    5.1540 3.2205 0.3904
O    5.5474 1.6002 1.8083
X    1.3171 2.7214 2.6170
X    1.5765 2.9211 -2.0586
X    -1.9944 -2.1017 -2.1696
X    2.6193 -1.7154 -2.6781
X    2.3598 -1.9151 1.9975
X    5.9307 3.1076 2.1086
   0    8 S
   0    9 S
   0   12 S
   0   13 S
   0   15 S
   0   16 S
   0   17 S
   1    9 S
   1   10 S
   1   11 S
   1   14 S
   1   15 S
   1   18 S
   1   19 S
   2    8 A
   2   11 A
   2   20 S
   3    9 S
   3   10 D
   3   21 S
   4   12 A
   4   13 A
   4   22 S
   5   14 A
   5   17 A
   5   23 S
   6   15 S
   6   16 D
   6   24 S
   7   18 A
   7   19 A
   7   25 S
