24
   19   20   21   22   23
Zn   0.0000 0.0000 0.0000
Zn   0.0000 -2.7682 1.5982
C    -2.2910 -1.8060 0.0684
Zn   2.8242 -0.9047 1.6295
O    1.1707 -3.8372 0.4951
O    3.0588 -2.8918 1.0860
O    -0.1838 1.9478 -0.1087
O    -0.7946 1.5685 1.9169
O    -1.7646 -0.8057 -0.3985
O    -0.1838 -3.8363 3.2308
O    -0.7946 -1.8924 3.9151
O    -1.7646 -2.7105 0.7012
C    2.4228 -3.7935 0.5547
O    3.0588 -0.3818 -0.3631
O    1.1707 -0.4208 -1.4773
O    0.7665 -0.9470 1.5562
C    -0.5574 2.3169 1.0297
C    -0.5574 -3.0349 4.1196
C    2.4228 -0.3911 -1.4097
X    -3.0356 -1.9965 -0.0013
X    2.7911 -4.5502 0.6529
X    -0.5682 3.1368 0.7260
X    -0.5682 -2.9121 4.7683
X    2.7911 -0.7147 -1.9032
   0    6 S
   0    8 S
   0   14 S
   0   15 S
   1    4 S
   1    9 S
   1   11 S
   1   15 S
   2    8 A
   2   11 A
   2   19 S
   3    5 S
   3   13 S
   3   15 S
   4   12 A
   5   12 A
   6   16 S
   7   16 D
   9   17 S
  10   17 D
  12   20 S
  13   18 A
  14   18 A
  16   21 S
  17   22 S
  18   23 S
