45
   40   41   42   43   44
C    0.0000 0.0000 0.0000
C    4.6039 -2.4905 -4.7483
C    3.5619 -1.8158 -1.2932
C    2.3479 -0.7772 0.2775
C    5.9592 -3.0042 -2.8528
C    5.6736 -2.7246 -5.6020
C    4.7512 -2.5710 -3.3750
C    4.3655 -1.5754 0.7753
C    6.9175 -3.0552 -5.0736
C    -0.7638 1.1494 0.2535
C    5.5905 -1.4541 2.9755
C    -0.4951 -0.9907 -0.8149
C    4.6673 -0.8095 3.7760
C    4.9516 -0.5767 5.1007
C    6.1760 -0.9204 5.6574
C    7.1058 -1.5188 4.8357
C    6.8162 -1.8044 3.5206
C    -2.0080 1.2924 -0.3777
C    -1.7523 -0.8568 -1.4069
C    -2.4846 0.2936 -1.2044
C    7.0486 -3.2272 -3.7084
H    2.8902 -2.2298 -3.0012
H    1.2723 0.2478 1.4716
H    3.7733 -2.2754 -5.1059
H    6.0481 -3.1474 -1.9371
H    7.6532 -3.1585 -5.6326
H    -0.4498 1.8063 0.8314
H    6.0465 -2.2639 1.2917
N    4.5730 -2.0545 -0.4608
N    3.3062 -0.8909 1.2050
N    2.4042 -1.2077 -0.9868
N    3.6448 -2.2037 -2.5882
N    1.2301 -0.1269 0.6995
N    5.3979 -1.8129 1.6334
H    7.4483 -2.2376 2.9939
H    0.0109 -1.7553 -0.9736
H    3.8532 -0.5353 3.4200
H    4.3062 -0.1776 5.6382
H    7.9445 -1.7324 5.1757
H    -3.3057 0.3972 -1.6287
X    5.6073 -2.6247 -6.3464
X    6.3433 -0.8578 6.3818
X    -2.3091 1.9777 -0.2552
X    -2.1448 -1.3543 -1.7902
X    7.6778 -3.5523 -3.4082
   0    9 A
   0   11 A
   0   32 S
   1    5 A
   1    6 A
   1   23 S
   2   28 A
   2   30 A
   2   31 S
   3   29 A
   3   30 A
   3   32 S
   4    6 A
   4   20 A
   4   24 S
   5    8 A
   5   40 S
   6   31 S
   7   28 A
   7   29 A
   7   33 S
   8   20 A
   8   25 S
   9   17 A
   9   26 S
  10   12 A
  10   16 A
  10   33 S
  11   18 A
  11   35 S
  12   13 A
  12   36 S
  13   14 A
  13   37 S
  14   15 A
  14   41 S
  15   16 A
  15   38 S
  16   34 S
  17   19 A
  17   42 S
  18   19 A
  18   43 S
  19   39 S
  20   44 S
  21   31 S
  22   32 S
  27   33 S
