40
   34   35   36   37   38   39
C    0.0000 0.0000 0.0000
C    1.1054 2.9211 2.3451
C    -5.4242 2.1446 -3.5957
Co   -0.7589 2.9008 0.6328
Co   -3.5600 2.1649 -1.8834
C    -0.4441 -1.9376 1.3109
C    -2.9394 6.2369 -3.2632
C    -2.7663 4.9300 -2.9393
C    -3.8747 7.0033 -2.5615
H    0.8366 -1.7924 -0.2585
N    -0.8669 0.7435 0.7067
H    0.4609 0.4019 -0.7019
N    -3.4519 4.3221 -1.9573
H    -2.4394 6.6207 -3.9463
H    -2.1415 4.4332 -3.4183
C    -4.5512 6.3777 -1.5100
C    -4.3188 5.0657 -1.2506
O    -2.6130 3.0962 1.3737
O    1.3879 2.8021 1.1083
H    -5.1554 6.8580 -0.9921
H    -4.7797 4.6638 -0.5487
O    -4.1499 2.1831 0.0341
C    -1.3795 -1.1712 2.0126
O    -4.2112 2.1329 -3.9856
C    -1.5526 0.1357 1.6887
H    -2.1774 0.6325 2.1677
H    -1.8795 -1.5550 2.6957
O    -1.7059 1.9695 -2.6244
C    -3.7546 2.6722 1.1098
O    -5.7067 2.2636 -2.3590
C    -0.5642 2.3934 -2.3604
O    -0.1689 2.8826 -1.2847
O    -0.1076 2.9328 2.7350
C    0.2324 -1.3120 0.2594
X    1.5915 3.0384 2.8763
X    -5.9103 2.0273 -4.1269
X    -0.1831 -2.6041 1.5376
X    -4.1357 7.6698 -2.7882
X    -4.3218 2.6230 1.6236
X    0.0030 2.4427 -2.8742
   0   10 A
   0   11 S
   0   33 A
   1   18 A
   1   32 A
   1   34 S
   2   23 A
   2   29 A
   2   35 S
   3   10 S
   3   17 S
   3   18 S
   3   31 S
   3   32 S
   4   12 S
   4   21 S
   4   23 S
   4   27 S
   4   29 S
   5   22 A
   5   33 A
   5   36 S
   6    7 A
   6    8 A
   6   13 S
   7   12 A
   7   14 S
   8   15 A
   8   37 S
   9   33 S
  10   24 A
  12   16 A
  15   16 A
  15   19 S
  16   20 S
  17   28 A
  21   28 A
  22   24 A
  22   26 S
  24   25 S
  27   30 A
  28   38 S
  30   31 A
  30   39 S
