48
   38   39   40   41   42   43   44   45   46   47
C    0.0000 0.0000 0.0000
Co   4.3762 1.5973 -3.0401
Co   2.9086 -1.2113 -4.2831
Co   5.8479 -0.1034 -5.5906
C    4.0747 2.3357 -5.8336
Co   2.9299 -0.0289 -0.4606
Co   4.3975 2.7798 0.7824
Co   1.4583 1.6719 2.0899
C    3.4021 -1.4422 -7.0700
O    4.0072 3.3578 -1.9674
C    1.4110 0.8838 -3.1067
O    6.2962 2.1026 -3.1181
O    1.3724 -0.0680 -3.9433
O    2.4404 1.0586 -2.3614
O    3.5610 2.3940 -4.6914
O    5.0978 1.7651 -6.1305
O    4.4836 -0.8474 -6.9329
C    4.1333 4.3946 -1.3792
O    2.6698 -1.7360 -6.1505
O    4.5999 -0.2671 -3.9290
O    4.4243 4.5087 -0.1570
O    7.3272 0.5803 -4.4030
C    7.3062 1.5685 -3.5007
O    3.2989 -1.7894 -1.5333
O    1.0099 -0.5341 -0.3826
O    5.9338 1.6364 0.4426
O    4.8658 0.5099 -1.1393
O    3.7452 -0.8255 1.1907
O    2.2084 -0.1967 2.6298
O    2.8226 2.4158 3.4322
O    4.6363 3.3044 2.6498
O    2.7063 1.8355 0.4283
O    2.8819 -2.9402 -3.3437
O    -0.0210 0.9882 0.9023
C    3.2314 -0.7672 2.3329
C    3.9041 3.0106 3.5693
C    5.8952 0.6847 -0.3940
C    3.1729 -2.8261 -2.1216
X    -0.7030 -0.1345 -0.1970
X    3.7241 2.7113 -6.3932
X    3.2048 -1.5971 -7.7581
X    0.8587 1.3541 -2.9967
X    4.0701 5.0360 -1.7561
X    8.0091 1.7030 -3.3037
X    3.5821 -1.1428 2.8925
X    4.1013 3.1656 4.2574
X    6.4474 0.2144 -0.5040
X    3.2360 -3.4676 -1.7446
   0   24 A
   0   33 A
   0   38 S
   1    9 S
   1   11 S
   1   13 S
   1   14 S
   1   19 S
   1   26 S
   2   12 S
   2   18 S
   2   19 S
   2   32 S
   3   15 S
   3   16 S
   3   19 S
   3   21 S
   4   14 A
   4   15 A
   4   39 S
   5   13 S
   5   23 S
   5   24 S
   5   26 S
   5   27 S
   5   31 S
   6   20 S
   6   25 S
   6   30 S
   6   31 S
   7   28 S
   7   29 S
   7   31 S
   7   33 S
   8   16 A
   8   18 A
   8   40 S
   9   17 A
  10   12 D
  10   13 S
  10   41 S
  11   22 A
  17   20 A
  17   42 S
  21   22 A
  22   43 S
  23   37 A
  25   36 D
  26   36 S
  27   34 A
  28   34 A
  29   35 A
  30   35 A
  32   37 A
  34   44 S
  35   45 S
  36   46 S
  37   47 S
