29
   23   24   25   26   27   28
Zn   0.0000 0.0000 0.0000
Co   -2.6748 -3.7293 -0.5733
Co   -2.7840 -0.5301 -2.2267
P    -0.2141 -2.3344 -1.9559
P    -2.8688 -1.0298 0.8652
O    -3.8380 -3.1075 -2.1027
O    -4.3392 -1.2958 -3.2064
O    -3.0591 -2.5455 0.8948
O    -3.4292 -0.3925 -0.3999
O    -1.4133 -0.6218 1.1119
O    1.6085 -0.4166 1.8207
O    1.4494 1.2761 0.5051
C    -1.4018 1.7777 -2.2675
C    -2.9607 -5.9483 0.5888
C    -4.5714 -2.4697 -2.8507
C    2.0539 0.6521 1.4258
O    -0.8786 1.2778 -1.2657
O    -2.3949 1.2865 -2.9083
O    -1.2019 -1.5458 -2.7749
O    -0.8777 -3.4436 -1.1794
O    0.6666 -1.4544 -1.0747
O    -1.9204 -5.4398 0.9863
O    -3.6455 -5.4588 -0.3476
X    -0.0992 -3.1342 -2.2086
X    -2.8598 -0.2617 1.1754
X    -1.2660 2.2707 -2.8380
X    -3.0773 -6.4114 1.1808
X    -5.3958 -2.9279 -2.4853
X    2.8731 1.0436 1.0886
   0    9 S
   0   11 S
   0   16 S
   0   20 S
   1    5 S
   1    7 S
   1   19 S
   1   21 S
   1   22 S
   2    6 S
   2    8 S
   2   17 S
   2   18 S
   3   18 A
   3   19 A
   3   20 A
   3   23 S
   4    7 A
   4    8 A
   4    9 A
   4   24 S
   5   14 A
   6   14 A
  10   15 D
  11   15 S
  12   16 A
  12   17 A
  12   25 S
  13   21 A
  13   22 A
  13   26 S
  14   27 S
  15   28 S
