46
   40   41   42   43   44   45
O    0.0000 0.0000 0.0000
O    0.5840 0.8260 -1.9596
Cu   -0.8977 -1.2696 -1.2454
Cu   -0.8978 -4.1790 -2.9251
Cu   -3.6408 -2.2394 -2.9251
C    0.6060 0.8570 -0.7027
H    2.1845 -1.5643 -0.1803
H    -2.2031 -6.5052 -4.8242
H    -5.3988 0.4082 -2.1374
O    -0.0000 -5.8923 -3.4019
O    0.5840 -4.6083 -5.0971
H    -2.2030 1.5381 -0.1803
H    -5.3988 -4.2455 -4.8242
O    -1.6285 -2.3031 -2.8148
O    -3.1943 -4.5174 1.0206
H    2.1845 -4.9540 -2.1374
O    -1.8773 -2.6549 0.2264
O    -1.8773 -4.7609 -0.9895
O    -3.8629 -3.3569 -0.9895
C    0.6060 -5.7123 -4.4955
S    -2.7021 -3.8213 -0.1851
N    0.7485 -2.3708 -1.3430
H    -1.3473 -1.9054 -3.5036
N    -2.4847 -4.6869 -4.0002
C    1.9246 -2.2739 -0.7561
N    -3.5907 -0.4756 -2.0203
C    -2.7855 -5.7658 -4.6950
C    -4.5076 0.4477 -1.8107
N    -2.4847 -0.0846 -1.3430
N    -3.5907 -3.9049 -4.0002
C    -2.7854 1.0566 -0.7561
C    -4.5076 -4.5481 -4.6950
N    0.7484 -3.5438 -2.0203
C    1.9246 -4.1005 -1.8107
N    2.6922 -3.3046 -1.0802
N    -4.0130 -5.6752 -5.1863
N    -4.0130 1.4367 -1.0802
C    -5.5876 -1.3328 -4.4955
O    -5.5553 -1.9641 -3.4019
O    -4.5394 -0.9855 -5.0971
X    1.4003 1.3411 -0.9774
X    0.6060 -6.4612 -4.4051
X    3.4779 -3.5664 -1.1051
X    -4.7986 -6.1539 -4.9586
X    -4.0129 2.1775 -1.2135
X    -6.3820 -1.0680 -4.5147
   0    2 S
   0    5 S
   1    5 D
   2   13 S
   2   16 S
   2   21 S
   2   28 S
   3    9 S
   3   13 S
   3   17 S
   3   23 S
   3   32 S
   4   13 S
   4   18 S
   4   25 S
   4   29 S
   4   38 S
   5   40 S
   6   24 S
   7   26 S
   8   27 S
   9   19 S
  10   19 D
  11   30 S
  12   31 S
  13   22 S
  14   20 D
  15   33 S
  16   20 A
  17   20 A
  18   20 A
  19   41 S
  21   24 A
  21   32 A
  23   26 A
  23   29 A
  24   34 A
  25   27 A
  25   28 A
  26   35 A
  27   36 A
  28   30 A
  29   31 A
  30   36 A
  31   35 A
  32   33 A
  33   34 A
  34   42 S
  35   43 S
  36   44 S
  37   38 S
  37   39 D
  37   45 S
