97
   89   90   91   92   93   94   95   96
O    0.0000 0.0000 0.0000
Eu   1.3865 0.5119 -1.8324
O    -0.8415 1.2479 -2.3931
O    2.4957 -1.3579 -0.7609
O    1.5670 2.8282 -2.3166
O    3.6628 0.7283 -2.4016
H    -0.9138 0.5418 -5.0391
H    4.8146 1.5221 -0.2997
H    6.2540 3.3800 -0.4123
H    1.7411 3.9088 0.5908
H    1.9638 -5.5262 -2.3060
H    1.8796 -3.4173 -3.2092
H    -1.9631 -1.1033 -6.3377
H    2.5256 -1.4551 -5.3048
H    -1.0352 -2.3720 -0.7247
H    1.4974 -3.0951 -6.5821
H    -0.9347 -4.4423 0.3039
H    3.1292 5.7763 0.4463
H    -0.3607 1.6856 1.8171
H    -4.0395 1.0084 0.5037
H    4.6011 -0.6600 -4.2591
H    -0.1849 1.3465 4.1146
H    3.4738 -0.5648 1.3836
H    4.3849 -2.3024 -2.0722
H    -3.9244 -1.7819 -2.3718
H    6.6669 -2.2900 -1.5132
H    5.7383 -0.5551 2.0084
H    -2.1496 1.9853 -0.3868
H    -2.0253 -0.8010 -3.2475
H    0.9987 -1.9957 1.1434
H    1.2194 -2.3664 3.4132
H    1.3179 3.0490 -4.7989
H    -1.6279 5.6992 -2.4845
H    4.0824 3.1284 -3.1072
H    5.2056 3.8687 -4.9732
H    -0.1574 4.3449 -1.3708
H    -0.1432 4.4208 -5.9657
H    5.6508 0.0494 -6.1953
C    -0.4195 -0.2092 -5.3473
C    4.4719 2.3990 -0.1679
C    4.8288 4.7761 -0.0425
C    5.3292 3.5061 -0.2359
C    2.6551 3.8038 0.3528
C    1.3514 -4.8889 -1.9574
C    0.5148 -5.2375 -0.8926
C    1.2923 -3.6401 -2.4972
C    -1.0472 -1.2068 -6.1039
C    1.5975 -1.3854 -5.5024
C    -0.4117 -3.0215 -1.0265
C    -0.3781 -2.3189 -6.5119
C    0.9824 -2.3702 -6.2463
C    -0.3641 -4.2540 -0.4314
C    3.4860 4.9124 0.2763
C    -0.0747 0.8450 2.1529
C    -3.6220 0.6151 -0.2529
C    4.7151 0.2703 -4.4185
C    0.0384 0.6419 3.5195
C    4.1343 -0.9049 0.7927
C    4.6759 -1.9267 -1.2497
C    -3.5568 -1.0222 -1.9383
C    6.0296 -1.9240 -0.9118
C    5.4787 -0.8991 1.1625
C    -2.5152 1.2053 -0.7885
C    -2.4378 -0.4320 -2.4739
C    -4.1611 -0.5555 -0.7949
C    6.4413 -1.4000 0.2848
C    0.4632 -0.5673 4.0275
C    0.7309 -1.3250 1.7619
C    0.8582 -1.5430 3.1029
C    0.7159 3.6143 -4.3271
C    -1.0057 5.1813 -2.9839
C    4.4196 2.5000 -3.7363
C    5.0792 2.9352 -4.8457
C    -0.1459 4.3688 -2.3208
C    -0.1447 4.4376 -5.0157
C    5.3542 0.6924 -5.5641
C    -1.0063 5.2820 -4.3633
C    5.5723 2.0429 -5.8085
N    3.1515 2.5801 0.0871
N    0.4395 -2.7238 -2.0552
N    0.8996 -0.3267 -5.0561
N    4.2481 1.1571 -3.5238
N    0.2293 -0.1529 1.3092
N    -1.9333 0.6745 -1.8936
N    3.7807 -1.3922 -0.3932
N    0.7007 3.6134 -2.9818
O    0.3784 -1.5224 -2.6184
O    2.3544 1.5272 0.1126
O    1.4782 0.5634 -4.2697
X    5.0315 5.4309 -0.1143
X    0.7128 -5.7670 -0.3877
X    -0.1802 -2.8379 -6.6548
X    -4.7345 -1.1321 -0.7145
X    7.0351 -1.0368 0.7213
X    0.0985 -0.7788 4.5790
X    -1.4700 5.4458 -5.0206
X    6.2384 2.4697 -6.0773
   0   82 S
   0    1 S
   1    2 S
   1    3 S
   1    4 S
   1    5 S
   1   86 S
   1   87 S
   1   88 S
   2   83 S
   3   84 S
   4   85 S
   5   81 S
   6   38 S
   7   39 S
   8   41 S
   9   42 S
  10   43 S
  11   45 S
  12   46 S
  13   47 S
  14   48 S
  15   50 S
  16   51 S
  17   52 S
  18   53 S
  19   54 S
  20   55 S
  21   56 S
  22   57 S
  23   58 S
  24   59 S
  25   60 S
  26   61 S
  27   62 S
  28   63 S
  29   67 S
  30   68 S
  31   69 S
  32   70 S
  33   71 S
  34   72 S
  35   73 S
  36   74 S
  37   75 S
  38   46 A
  38   80 A
  39   41 A
  39   78 A
  40   41 A
  40   52 A
  40   89 S
  42   52 A
  42   78 A
  43   44 A
  43   45 A
  44   51 A
  44   90 S
  45   79 A
  46   49 A
  47   50 A
  47   80 A
  48   51 A
  48   79 A
  49   50 A
  49   91 S
  53   56 A
  53   82 A
  54   62 A
  54   64 A
  55   75 A
  55   81 A
  56   66 A
  57   61 A
  57   84 A
  58   60 A
  58   84 A
  59   63 A
  59   64 A
  60   65 A
  61   65 A
  62   83 A
  63   83 A
  64   92 S
  65   93 S
  66   68 A
  66   94 S
  67   68 A
  67   82 A
  69   74 A
  69   85 A
  70   73 A
  70   76 A
  71   72 A
  71   81 A
  72   77 A
  73   85 A
  74   76 A
  75   77 A
  76   95 S
  77   96 S
  78   87 S
  79   86 S
  80   88 S
