33
   30   31   32
O    0.0000 0.0000 0.0000
O    -3.0732 1.0046 -5.4254
O    2.7040 3.1078 -5.0279
H    -1.4966 0.2168 -1.9840
H    -0.9834 2.3040 -5.3087
H    2.0286 2.0142 -2.7169
H    2.1415 -0.3856 1.2143
H    3.4061 0.5110 0.9845
H    -5.3365 0.5865 -4.5255
H    -5.6828 0.2519 -3.0324
H    0.9078 5.8114 -6.7665
H    2.2303 4.9753 -6.7610
H    2.5743 1.1301 -0.9804
H    -3.5331 0.4803 -2.5102
H    0.0112 4.3287 -5.3713
C    0.3455 1.0551 -2.1050
C    -0.9586 0.7443 -2.5279
C    -1.4529 1.1931 -3.7123
C    -0.6489 1.9914 -4.4996
C    0.6121 2.3342 -4.1379
C    1.1457 1.8327 -2.9481
C    0.8213 0.5139 -0.7792
C    2.7867 -0.0972 0.5507
C    -2.7999 0.8792 -4.1910
C    -5.0600 0.0701 -3.7517
C    1.5173 3.2571 -4.9103
C    1.5510 5.3694 -6.1913
N    2.1020 0.6007 -0.4923
N    -3.7247 0.4899 -3.3492
N    0.8660 4.2905 -5.4542
X    3.0321 -0.7826 0.4013
X    -5.2110 -0.6866 -3.6825
X    2.0534 5.9317 -6.0459
   0   21 D
   1   23 D
   2   25 D
   3   16 S
   4   18 S
   5   20 S
   6   22 S
   7   22 S
   8   24 S
   9   24 S
  10   26 S
  11   26 S
  12   27 S
  13   28 S
  14   29 S
  15   16 A
  15   20 A
  15   21 S
  16   17 A
  17   18 A
  17   23 S
  18   19 A
  19   20 A
  19   25 S
  21   27 S
  22   27 S
  22   30 S
  23   28 S
  24   28 S
  24   31 S
  25   29 S
  26   29 S
  26   32 S
