24
   21   22   23
H    0.0000 0.0000 0.0000
H    -1.9031 0.4442 1.0603
C    0.0859 1.1414 3.5015
C    -0.7755 0.8338 4.5496
C    -0.3863 1.0503 5.9901
O    -1.2034 1.4520 6.8015
C    -2.0405 0.3896 4.2849
C    -2.4640 0.2368 2.9688
C    -3.8721 -0.1821 2.6288
O    -4.4516 0.3036 1.6719
O    1.3608 2.3586 1.2531
C    -1.6169 0.5393 1.9400
C    -0.3291 0.9916 2.2082
C    0.6153 1.4044 1.1076
H    1.3852 0.4898 5.6361
H    0.9444 1.4510 3.6803
H    -3.9093 -1.3821 4.0904
H    -2.6185 0.1913 4.9859
N    0.8944 0.7670 6.2881
N    -4.4086 -1.1079 3.4437
N    0.5652 0.6506 -0.0053
X    1.6016 0.9361 6.4677
X    -5.1652 -1.1643 3.8098
X    0.6146 0.3720 -0.4681
   0   20 S
   1   11 S
   2    3 A
   2   12 A
   2   15 S
   3    4 S
   3    6 A
   4    5 D
   4   18 S
   6    7 A
   6   17 S
   7    8 S
   7   11 A
   8    9 D
   8   19 S
  10   13 D
  11   12 A
  12   13 S
  13   20 S
  14   18 S
  16   19 S
  18   21 S
  19   22 S
  20   23 S
