55
   47   48   49   50   51   52   53   54
C    0.0000 0.0000 0.0000
C    -0.0175 3.5487 -4.4614
Mn   4.7159 2.2600 -8.6073
Mn   2.5472 -0.6389 -9.4211
Mn   4.7159 -1.1424 -3.7283
Mn   2.5472 1.7564 -2.9144
C    5.1297 -2.4790 -7.8498
Mn   2.5303 0.5588 -6.1678
C    5.2102 0.3963 0.2768
C    0.0000 1.1176 -12.3356
N    0.8830 -1.4527 -8.0062
N    1.0365 -0.9839 -6.7410
N    0.2573 -1.6609 -5.9110
N    -0.4230 -2.5796 -6.5992
N    4.1804 2.6567 -4.3426
N    3.9959 2.1768 -5.5838
N    4.7925 2.8081 -6.4236
N    5.5204 3.7159 -5.7566
N    5.4471 1.7010 -11.7232
N    4.6969 1.3659 -10.6664
N    4.0622 0.2489 -10.9140
N    4.3525 -0.1833 -12.1418
N    0.6532 1.0285 -0.4947
N    1.0653 0.5921 -1.6924
N    0.7152 -0.6546 -1.8849
N    -0.0095 -1.0474 -0.8290
N    0.8830 2.5703 -4.3294
N    1.0365 2.1015 -5.5946
N    0.2573 2.7785 -6.4246
N    -0.4230 3.6972 -5.7364
N    4.1804 -1.5392 -7.9930
N    3.9959 -1.0593 -6.7517
N    4.7925 -1.6905 -5.9119
N    5.5204 -2.5983 -6.5790
N    5.4471 -0.5835 -0.6123
N    4.6969 -0.2483 -1.6692
N    4.0622 0.8687 -1.4216
N    4.3524 1.3009 -0.1937
N    0.6532 0.0891 -11.8409
N    1.0653 0.5254 -10.6432
N    0.7152 1.7722 -10.4507
N    -0.0095 2.1649 -11.5066
O    2.8545 1.1334 -8.2193
O    2.8545 -0.0159 -4.1163
C    -0.0175 -2.4311 -7.8741
C    5.1297 3.5965 -4.4858
C    5.2102 0.7213 -12.6124
X    -0.5846 -0.2921 0.3729
X    -0.6852 3.6081 -4.2337
X    5.8124 -2.5104 -8.0693
X    5.2442 0.4312 0.9604
X    -0.0546 1.0901 -13.0282
X    0.0920 -2.7696 -8.3810
X    5.0529 3.9310 -3.9633
X    5.7901 0.9934 -12.9890
   0   22 A
   0   25 A
   0   47 S
   1   26 A
   1   29 A
   1   48 S
   2   16 S
   2   19 S
   2   42 S
   3   10 S
   3   20 S
   3   30 S
   3   39 S
   3   42 S
   4   32 S
   4   35 S
   4   43 S
   5   14 S
   5   23 S
   5   26 S
   5   36 S
   5   43 S
   6   30 A
   6   33 A
   6   49 S
   7   11 S
   7   15 S
   7   27 S
   7   31 S
   7   42 S
   7   43 S
   8   34 A
   8   37 A
   8   50 S
   9   38 A
   9   41 A
   9   51 S
  10   11 A
  10   44 A
  11   12 A
  12   13 A
  13   44 A
  14   15 A
  14   45 A
  15   16 A
  16   17 A
  17   45 A
  18   19 A
  18   46 A
  19   20 A
  20   21 A
  21   46 A
  22   23 A
  23   24 A
  24   25 A
  26   27 A
  27   28 A
  28   29 A
  30   31 A
  31   32 A
  32   33 A
  34   35 A
  35   36 A
  36   37 A
  38   39 A
  39   40 A
  40   41 A
  44   52 S
  45   53 S
  46   54 S
