29
   23   24   25   26   27   28
C    0.0000 0.0000 0.0000
O    -1.2416 -0.3024 -0.0412
O    0.8590 -0.8293 0.0687
O    -0.8407 -2.9757 -1.5348
C    -0.2291 -4.0982 -1.6585
O    -0.0046 -4.9687 -0.7514
O    -2.9368 -3.0857 4.4373
O    -2.8268 -0.9850 3.9104
O    -4.4304 -2.6848 1.7639
O    -3.6469 -1.8487 -0.2291
O    1.5417 -4.7809 1.6540
O    1.0148 -4.6709 3.7546
O    -1.1317 -6.2745 2.0548
O    -3.1246 -5.4910 2.8910
O    -1.2302 -3.0742 1.6654
C    -2.8956 -1.8441 4.7396
C    -4.5541 -2.0732 0.6414
H    -0.6529 -2.4970 2.2427
Zn   -1.7419 -2.1671 -0.0206
Zn   -2.9162 -3.5860 2.5726
Zn   -0.3230 -4.7603 1.1536
C    1.8441 -4.7396 2.8956
C    -2.2541 -6.3982 2.6665
X    0.1684 0.7285 -0.1111
X    -0.0160 -4.2792 -2.3549
X    -3.0067 -1.6757 5.4681
X    -5.2505 -1.8601 0.4604
X    2.5726 -4.8507 3.0639
X    -2.4351 -7.0946 2.8795
   0    1 S
   0    2 D
   0   23 S
   1   18 S
   3    4 A
   3   18 S
   4    5 A
   4   24 S
   5   20 S
   6   15 S
   6   19 S
   7   15 D
   8   16 A
   8   19 S
   9   16 A
   9   18 S
  10   20 S
  10   21 S
  11   21 D
  12   20 S
  12   22 A
  13   19 S
  13   22 A
  14   17 S
  14   18 S
  14   19 S
  14   20 S
  15   25 S
  16   26 S
  21   27 S
  22   28 S
