62
   54   55   56   57   58   59   60   61
C    0.0000 0.0000 0.0000
C    0.2156 3.7545 -3.5279
C    -2.9478 -0.3770 -2.3073
C    -4.2680 -0.2960 -2.4812
C    -4.7657 0.5157 -3.4167
C    -3.9291 1.2868 -4.1211
C    -2.5469 1.1326 -3.9215
H    -4.2635 1.9255 -4.7400
C    5.3313 0.0234 -2.5126
C    4.6863 0.7525 -3.5308
C    3.3006 0.8849 -3.5194
C    3.1660 -0.3474 -1.5943
C    4.5253 -0.5110 -1.5572
C    3.0660 3.7810 -1.4545
C    4.4564 3.6486 -1.3690
C    4.9817 2.9600 -0.3166
C    4.1221 2.4178 0.6075
C    2.7626 2.5876 0.4620
H    -2.6211 -0.9659 -1.6399
H    -4.8525 -0.8132 -1.9394
C    -5.1204 3.5722 -1.3433
C    -4.3232 4.3699 -2.1190
C    -2.9185 4.2717 -1.9479
C    -3.1053 2.6188 -0.4478
C    -4.5204 2.6687 -0.4877
H    2.6410 -0.7306 -0.9012
H    -1.9489 1.6358 -4.4634
H    2.6987 4.2593 -2.1903
H    5.0217 4.0302 -2.0306
H    4.4637 1.9287 1.3461
H    2.1753 2.2106 1.1066
H    2.8787 1.3818 -4.2096
H    4.9131 -1.0111 -0.8499
N    -2.0516 0.3240 -3.0203
H    -2.3676 4.8575 -2.4556
H    -2.6990 1.9676 0.1112
N    2.5491 0.3381 -2.5697
N    2.2493 3.2731 -0.5675
H    -4.7000 4.9728 -2.7493
H    -5.0444 2.0954 0.0627
N    -2.3244 3.4180 -1.1322
O    -0.2172 3.8822 1.4745
O    -0.7240 5.7174 0.3879
O    0.6665 -1.9271 -3.8816
O    0.4270 -0.0389 -4.9967
O    0.1282 -0.9939 -0.7273
O    -0.1444 1.1591 -0.4620
C    -0.5805 5.0600 1.4403
O    0.0672 4.7406 -2.7864
O    0.3605 2.5767 -3.0859
H    5.1964 1.1544 -4.2238
C    0.7027 -1.2681 -4.9397
Cd   -0.0384 3.5757 -0.7840
Cd   0.2302 0.2405 -2.7174
X    0.0231 -0.0882 0.7501
X    0.2132 3.8611 -4.2751
X    -5.4807 0.7986 -3.5294
X    6.0182 -0.2528 -2.4727
X    5.6750 2.6813 -0.2381
X    -5.8106 3.8430 -1.4189
X    -0.6611 5.4140 2.0848
X    0.8222 -1.6313 -5.5970
   0   45 D
   0   46 S
   0   54 S
   1   48 D
   1   49 S
   1   55 S
   2    3 A
   2   18 S
   2   33 A
   3    4 A
   3   19 S
   4    5 A
   4   56 S
   5    6 A
   5    7 S
   6   26 S
   6   33 A
   8    9 A
   8   12 A
   8   57 S
   9   10 A
   9   50 S
  10   31 S
  10   36 A
  11   12 A
  11   25 S
  11   36 A
  12   32 S
  13   14 A
  13   27 S
  13   37 A
  14   15 A
  14   28 S
  15   16 A
  15   58 S
  16   17 A
  16   29 S
  17   30 S
  17   37 A
  20   21 A
  20   24 A
  20   59 S
  21   22 A
  21   38 S
  22   34 S
  22   40 A
  23   24 A
  23   35 S
  23   40 A
  24   39 S
  33   53 S
  36   53 S
  37   52 S
  40   52 S
  41   47 A
  41   52 S
  42   47 A
  42   52 S
  43   51 A
  43   53 S
  44   51 A
  44   53 S
  45   53 S
  46   52 S
  46   53 S
  47   60 S
  48   52 S
  49   52 S
  49   53 S
  51   61 S
