52
   48   49   50   51
Cu   0.0000 0.0000 0.0000
Cu   -1.2303 1.4376 -1.9723
Cu   -1.0163 -1.2956 -2.1157
Cu   -2.6775 -0.0453 -0.4388
H    -0.6013 2.3478 -4.6688
H    -6.4890 0.7199 2.6100
H    2.8341 -0.4911 -0.3315
H    -4.4213 1.0752 1.6471
H    -0.0902 4.2622 -5.8112
H    -1.1996 6.3633 -2.6480
H    0.8995 0.0183 2.9120
H    -5.0065 -1.7583 -0.8066
H    -0.3062 -1.9015 -4.8990
H    -0.5347 -4.2165 -1.8498
H    0.3390 -5.9804 -3.1316
H    0.4275 -3.5820 -6.2441
H    2.7948 -0.1575 4.1557
H    -7.0565 -2.2024 0.0929
H    4.8006 -0.8682 0.7665
H    -1.5880 4.4127 -1.5352
C    -0.7067 3.1654 -4.2402
C    -6.1955 0.1633 1.9258
C    2.8263 -0.4494 0.5976
C    -4.9535 0.3845 1.3240
C    -0.4088 4.3220 -4.9412
C    -1.0480 5.5547 -3.0809
C    1.7075 -0.1285 2.4770
C    -5.2886 -1.2452 -0.0824
C    -0.1975 -2.7463 -4.5252
C    -0.3178 -4.0769 -2.7430
C    0.1826 -5.1519 -3.5243
C    0.2519 -3.7506 -5.3467
C    -0.5798 5.5529 -4.3669
C    0.4311 -4.9688 -4.8399
C    2.8338 -0.2391 3.2287
C    -6.5266 -1.5335 0.4603
C    4.0275 -0.6398 1.2311
C    -1.2957 4.3710 -2.4157
C    4.0194 -0.4712 2.6015
C    -6.9538 -0.8482 1.5119
I    -1.5160 2.0951 0.6430
I    -1.3793 -2.2960 0.3203
I    -3.1443 -0.0430 -3.1256
I    1.1285 0.3198 -2.5221
N    -4.5032 -0.3279 0.3358
N    -1.1356 3.1727 -2.9753
N    -0.4773 -2.8877 -3.2752
N    1.7002 -0.2192 1.1508
X    -0.3916 6.1900 -4.7237
X    0.6688 -5.5484 -5.2791
X    4.6722 -0.5957 2.9383
X    -7.6496 -0.9414 1.8646
   0    1 S
   0    2 S
   0    3 S
   0   40 S
   0   41 S
   0   43 S
   0   47 S
   1    2 S
   1    3 S
   1   40 S
   1   42 S
   1   43 S
   1   45 S
   2    3 S
   2   41 S
   2   42 S
   2   43 S
   2   46 S
   3   40 S
   3   41 S
   3   42 S
   3   44 S
   4   20 S
   5   21 S
   6   22 S
   7   23 S
   8   24 S
   9   25 S
  10   26 S
  11   27 S
  12   28 S
  13   29 S
  14   30 S
  15   31 S
  16   34 S
  17   35 S
  18   36 S
  19   37 S
  20   24 A
  20   45 A
  21   23 A
  21   39 A
  22   36 A
  22   47 A
  23   44 A
  24   32 A
  25   32 A
  25   37 A
  26   34 A
  26   47 A
  27   35 A
  27   44 A
  28   31 A
  28   46 A
  29   30 A
  29   46 A
  30   33 A
  31   33 A
  32   48 S
  33   49 S
  34   38 A
  35   39 A
  36   38 A
  37   45 A
  38   50 S
  39   51 S
