26
   22   23   24   25
O    0.0000 0.0000 0.0000
H    -3.8526 -1.0208 -2.1057
H    -5.7125 0.8834 0.9200
H    -1.8628 -0.3720 1.3690
H    1.9783 -0.1375 -1.2224
H    3.8382 -3.1632 -3.1265
H    -0.0116 -3.6122 -1.8712
C    -2.7032 -0.8472 -0.4309
C    -3.8468 -0.6929 -1.2141
C    -4.9414 0.4541 0.5667
C    -4.9530 -0.0779 -0.7164
C    -2.6498 -0.3026 0.8421
C    -3.7804 0.3475 1.3261
C    -1.5307 -1.5147 -0.9942
C    0.8289 -1.8123 -1.3960
C    1.9725 -1.0290 -1.5503
C    3.0671 -2.8099 -2.6973
C    3.0786 -1.5268 -2.1653
C    0.7754 -3.0853 -1.9406
C    1.9061 -3.5693 -2.5907
C    -0.3437 -1.2490 -0.7285
O    -1.8743 -2.2432 -2.2432
X    -5.4256 -0.2461 -1.3716
X    -4.1879 0.4217 1.8329
X    3.5513 -0.8716 -1.9971
X    2.3136 -4.0761 -2.6649
   0   20 D
   1    8 S
   2    9 S
   3   11 S
   4   15 S
   5   16 S
   6   18 S
   7    8 A
   7   11 A
   7   13 S
   8   10 A
   9   10 A
   9   12 A
  10   22 S
  11   12 A
  12   23 S
  13   20 S
  13   21 D
  14   15 A
  14   18 A
  14   20 S
  15   17 A
  16   17 A
  16   19 A
  17   24 S
  18   19 A
  19   25 S
