66
   58   59   60   61   62   63   64   65
Ag   0.0000 0.0000 0.0000
Ag   -0.0413 -0.0474 -4.1187
H    -5.0064 -2.6905 -1.6967
H    -5.4836 -1.4325 -1.9650
H    1.9376 5.2805 -2.4220
H    0.6260 5.5808 -2.1536
H    -1.4274 1.1403 2.9599
H    -4.6014 3.4569 1.9923
H    -3.8814 3.3941 -0.2489
H    -1.9680 2.2068 -0.7886
H    0.6983 -1.4877 -6.8247
H    4.1298 -3.6054 -6.4852
H    4.2489 -2.9088 -4.2382
H    2.6234 -1.4925 -3.3881
H    -1.3665 1.2102 -7.0786
H    -4.0963 4.0367 -6.1110
H    -3.9354 3.3320 -3.8697
H    -2.4970 1.5995 -3.3301
H    1.5281 -0.5352 2.7060
H    4.0962 -3.6440 2.3666
H    3.4224 -3.8575 0.1195
H    1.7967 -2.4415 -0.7305
C    -2.9463 -1.1789 -0.9587
C    -2.7628 -1.4828 -3.1015
C    0.7226 3.0327 -3.1599
C    1.0488 2.8926 -1.0172
C    -1.9366 1.6017 2.3038
C    -3.0727 2.3020 2.7041
C    -3.8180 2.9777 1.7472
C    -3.3955 2.9384 0.4282
C    -2.2551 2.2243 0.1165
C    1.4358 -1.7736 -6.2985
C    2.3932 -2.5975 -6.8845
C    3.4650 -3.0368 -6.1168
C    3.5339 -2.6200 -4.7941
C    2.5545 -1.7836 -4.2904
C    -1.8933 1.6513 -6.4224
C    -2.7428 2.6808 -6.8228
C    -3.5142 3.3263 -5.8658
C    -3.4175 2.9132 -4.5469
C    -2.5537 1.8815 -4.2352
C    1.9123 -1.2265 2.1799
C    2.8597 -2.0620 2.7658
C    3.4418 -3.0634 1.9981
C    3.0384 -3.1888 0.6754
C    2.0756 -2.3333 0.1718
N    -1.7281 -0.8447 -1.2999
N    -1.6100 -1.0353 -2.6658
N    -3.6405 -1.5685 -2.0659
N    -4.9548 -2.0493 -2.1739
N    0.5585 1.7801 -2.8187
N    0.7636 1.6893 -1.4528
N    1.0134 3.7737 -2.0528
N    1.3094 5.1416 -1.9447
N    -1.5334 1.5552 1.0231
N    1.5116 -1.3664 -5.0239
N    -1.7921 1.2583 -5.1418
N    1.5194 -1.3574 0.9052
X    -2.9460 -0.9403 -0.3779
X    -3.1509 -1.8765 -3.4224
X    0.4817 3.0654 -3.7554
X    1.4999 3.2151 -0.6924
X    -3.0724 2.5406 3.2850
X    2.0052 -2.9911 -7.2053
X    -2.9837 2.7134 -7.4183
X    3.3108 -1.7395 3.0906
   0   46 S
   0   51 S
   0   54 S
   0   57 S
   1   47 S
   1   50 S
   1   55 S
   1   56 S
   2   49 S
   3   49 S
   4   53 S
   5   53 S
   6   26 S
   7   28 S
   8   29 S
   9   30 S
  10   31 S
  11   33 S
  12   34 S
  13   35 S
  14   36 S
  15   38 S
  16   39 S
  17   40 S
  18   41 S
  19   43 S
  20   44 S
  21   45 S
  22   46 A
  22   48 A
  22   58 S
  23   47 A
  23   48 A
  23   59 S
  24   50 A
  24   52 A
  24   60 S
  25   51 A
  25   52 A
  25   61 S
  26   27 A
  26   54 A
  27   28 A
  27   62 S
  28   29 A
  29   30 A
  30   54 A
  31   32 A
  31   55 A
  32   33 A
  32   63 S
  33   11 S
  33   34 A
  34   35 A
  35   55 A
  36   37 A
  36   56 A
  37   38 A
  37   64 S
  38   39 A
  39   40 A
  40   56 A
  41   42 A
  41   57 A
  42   43 A
  42   65 S
  43   19 S
  43   44 A
  44   45 A
  45   57 A
  46   47 A
  48   49 S
  50   51 A
  52   53 S
