54
   51   52   53
C    0.0000 0.0000 0.0000
C    -0.1156 -1.3339 0.6738
C    0.5608 -2.4268 -0.1551
C    0.1508 -1.2167 -2.2031
C    -0.5292 -0.0961 -1.4438
C    -0.6152 -3.5572 -2.0079
C    -1.2419 -9.3213 0.3743
C    -1.4961 -9.2431 -1.1550
C    -2.2693 -7.9499 -1.5240
C    -1.4122 -5.6273 -1.7619
C    -1.2374 -6.7902 0.4171
C    -0.4941 -8.0557 0.8342
C    -1.7446 -4.5051 -3.6682
C    -3.4516 -4.3194 -7.5610
C    -2.3534 -3.3503 -7.0797
C    -3.2562 -5.6485 -6.8311
C    -3.2992 -5.4514 -5.3205
C    -2.4365 -3.1532 -5.6012
N    -1.0845 -3.4464 -3.2324
H    0.9473 0.2378 -0.0374
H    -1.0529 -1.5554 0.7967
N    -0.7532 -4.5930 -1.1978
H    0.2984 -1.2900 1.5507
H    0.4281 -3.2868 0.2754
N    -1.5449 -6.7707 -1.0133
H    1.0906 -1.0082 -2.3180
N    0.0172 -2.4659 -1.4919
H    -0.2488 -1.3014 -3.0827
H    -2.1209 -9.3066 0.8181
H    -0.6475 -9.2577 -1.6256
H    1.5144 -2.2558 -0.1978
H    -1.4865 -0.2525 -1.4277
H    -0.3718 0.7460 -1.9009
N    -1.9441 -5.6501 -2.9757
N    -2.3306 -4.4383 -4.9195
H    -2.3610 -7.8863 -2.4865
H    -3.1583 -7.9808 -1.1363
H    -4.3193 -3.9481 -7.3097
H    -2.0644 -6.7267 0.9224
H    -0.6950 -6.0166 0.6363
H    -2.0079 -10.0184 -1.4384
H    -0.4012 -8.0704 1.7993
H    0.3955 -8.0492 0.4492
H    -1.4817 -3.7086 -7.3097
H    -4.1900 -5.1761 -5.0531
H    -3.0961 -6.2902 -4.8767
H    -1.7201 -2.5685 -5.3098
H    -3.2812 -2.7314 -5.3740
H    -2.4556 -2.4952 -7.5289
H    -3.9537 -6.2674 -7.0985
H    -2.4016 -6.0328 -7.0851
X    -0.2436 0.6328 0.3676
X    -1.0368 -10.0200 0.5668
X    -3.4869 -4.4386 -8.3216
   0    1 S
   0    4 S
   0   19 S
   0   51 S
   1    2 S
   1   20 S
   1   22 S
   2   23 S
   2   26 S
   2   30 S
   3    4 S
   3   25 S
   3   26 S
   3   27 S
   4   31 S
   4   32 S
   5   18 A
   5   21 A
   5   26 S
   6    7 S
   6   11 S
   6   28 S
   6   52 S
   7    8 S
   7   29 S
   7   40 S
   8   24 S
   8   35 S
   8   36 S
   9   21 A
   9   24 S
   9   33 A
  10   11 S
  10   24 S
  10   38 S
  10   39 S
  11   41 S
  11   42 S
  12   18 A
  12   33 A
  12   34 S
  13   14 S
  13   15 S
  13   37 S
  13   53 S
  14   17 S
  14   43 S
  14   48 S
  15   16 S
  15   49 S
  15   50 S
  16   34 S
  16   44 S
  16   45 S
  17   34 S
  17   46 S
  17   47 S
