24
   12   13   14   15   16   17   18   19   20   21   22   23
B    0.0000 0.0000 0.0000
B    -1.2628 0.9988 0.6058
B    -0.8020 -0.4958 1.4404
B    0.9520 -0.7302 1.2342
B    1.5702 0.6324 0.2782
B    0.2052 1.6982 -0.1026
B    0.5140 1.6084 2.6340
B    1.7768 0.6096 2.0282
B    1.3160 2.1042 1.1936
B    -0.4380 2.3386 1.3998
B    -1.0562 0.9760 2.3558
B    0.3088 -0.0898 2.7366
X    -0.1212 -0.3848 -0.6322
X    -1.9332 1.0745 0.2781
X    -1.2741 -1.0770 1.4835
X    1.2548 -1.4145 1.1846
X    2.1458 0.5493 -0.1953
X    0.1796 2.0865 -0.7437
X    0.6352 1.9932 3.2662
X    2.4472 0.5339 2.3559
X    1.7881 2.6854 1.1505
X    -0.7408 3.0229 1.4494
X    -1.6318 1.0591 2.8293
X    0.3344 -0.4781 3.3777
   0    1 S
   0    2 S
   0    3 S
   0    4 S
   0    5 S
   1    2 S
   1    5 S
   1    9 S
   1   10 S
   2    3 S
   2   10 S
   2   11 S
   3    4 S
   3    7 S
   3   11 S
   4    5 S
   4    7 S
   4    8 S
   5    8 S
   5    9 S
   6    7 S
   6    8 S
   6    9 S
   6   10 S
   6   11 S
   7    8 S
   7   11 S
   8    9 S
   9   10 S
  10   11 S
  12    0 S
  13    1 S
  14    2 S
  15    3 S
  16    4 S
  17    5 S
  18    6 S
  19    7 S
  20    8 S
  21    9 S
  22   10 S
  23   11 S
