125
  117  118  119  120  121  122  123  124
C    0.0000 0.0000 0.0000
C    1.0598 0.7893 0.4312
C    2.0877 0.2252 1.1776
C    2.0562 -1.1283 1.4925
C    0.9964 -1.9177 1.0614
C    -0.0316 -1.3536 0.3150
C    -2.8414 0.3402 -2.4354
C    -3.2068 1.6721 -2.2793
C    -2.5096 2.4854 -1.3930
C    -1.4466 1.9661 -0.6628
C    -1.0810 0.6344 -0.8189
C    -1.7785 -0.1787 -1.7049
C    -5.2383 -2.1128 -5.0181
C    -4.9450 -0.8040 -5.3822
C    -4.1267 -0.0243 -4.5738
C    -3.6011 -0.5534 -3.4008
C    -3.8940 -1.8625 -3.0363
C    -4.7127 -2.6419 -3.8446
C    -7.8187 5.2864 -2.4251
C    -7.4810 6.5640 -2.8563
C    -8.3875 7.3078 -3.6027
C    -9.6319 6.7742 -3.9176
C    -9.9696 5.4967 -3.4865
C    -9.0631 4.7529 -2.7401
C    -6.4445 2.7763 0.0103
C    -5.0723 2.9334 -0.1458
C    -4.5773 3.8834 -1.0321
C    -5.4553 4.6764 -1.7623
C    -6.8273 4.5196 -1.6062
C    -7.3220 3.5694 -0.7202
C    -7.8279 -0.3619 2.5930
C    -6.7227 0.3979 2.9571
C    -6.3039 1.4477 2.1487
C    -6.9908 1.7384 0.9757
C    -8.0965 0.9789 0.6112
C    -8.5148 -0.0713 1.4195
C    -3.1460 5.9370 3.5065
C    -4.2019 5.1451 3.9423
C    -4.8810 5.4733 5.1099
C    -4.5040 6.5933 5.8419
C    -3.4481 7.3852 5.4061
C    -2.7690 7.0570 4.2385
C    -0.3949 5.6580 0.9621
C    -1.0276 5.0008 -0.0866
C    -2.3579 4.6156 0.0355
C    -3.0553 4.8878 1.2069
C    -2.4228 5.5446 2.2557
C    -1.0927 5.9300 2.1333
H    1.0820 1.6939 0.2196
H    2.7956 0.7535 1.4666
H    0.9769 -2.8224 1.2737
H    -0.7429 -1.8820 0.0267
H    -3.9184 2.0194 -2.7681
H    -0.9802 2.5090 -0.0684
H    -1.5346 -1.0697 -1.8090
H    -5.2956 -0.4490 -6.1671
H    -3.9290 0.8514 -4.8173
H    -3.5449 -2.2161 -2.2513
H    -4.9093 -3.5179 -3.5986
C    1.9490 5.3067 0.1016
C    1.4552 7.3215 1.3239
C    2.7433 7.7834 1.0822
H    -6.6499 6.9215 -2.6447
H    -8.1610 8.1615 -3.8917
H    -10.8019 5.1416 -3.6988
H    -9.2884 3.8958 -2.4518
H    -4.4850 2.4024 0.3430
H    -5.1252 5.3115 -2.3567
H    -8.2398 3.4638 -0.6160
H    -6.2626 0.2048 3.7420
H    -5.5649 1.9574 2.3922
H    -8.5546 1.1711 -0.1738
H    -9.2545 -0.5801 1.1735
C    -1.1370 4.5788 -5.9316
C    -1.4785 3.3038 -6.3674
C    -0.9210 2.7959 -7.5350
C    -0.0221 3.5631 -8.2670
C    0.3195 4.8380 -7.8312
C    -0.2381 5.3459 -6.6636
C    -2.4209 7.0278 -3.3872
C    -2.7951 6.1959 -2.3384
C    -2.6570 4.8178 -2.4606
C    -2.1445 4.2720 -3.6320
C    -1.7706 5.1037 -4.6807
C    -1.9085 6.4816 -4.5584
C    -2.6703 11.2700 -2.7755
C    -3.6713 10.4396 -2.2855
C    -3.6201 9.0721 -2.5267
C    -2.5678 8.5343 -3.2584
C    -1.5664 9.3644 -3.7490
C    -1.6176 10.7320 -3.5073
H    -4.4533 4.3955 3.4541
H    -5.5876 4.9442 5.4004
H    -3.1981 8.1341 5.8966
H    -2.0618 7.5883 3.9451
H    -0.5606 4.8190 -0.8706
H    -3.9460 4.6317 1.2892
H    -0.6696 6.3700 2.8344
H    3.8327 5.2481 -0.6289
H    1.6823 4.4776 -0.2252
H    0.8594 7.8418 1.8111
H    3.0076 8.6137 1.4100
H    -2.0805 2.7913 -5.8792
H    -1.1487 1.9431 -7.8255
H    0.9213 5.3490 -8.3217
H    -0.0085 6.2001 -6.3702
H    -3.1378 6.5615 -1.5545
H    -2.0503 3.3500 -3.7143
H    -1.6579 7.0382 -5.2595
H    -4.3763 10.7984 -1.7962
C    -3.0254 3.9506 -1.2125
H    -4.2902 8.5158 -2.1999
H    -0.8616 9.0054 -4.2362
H    -0.9456 11.2866 -3.8351
C    3.6348 7.0069 0.3504
C    3.2371 5.7687 -0.1396
C    1.0579 6.0829 0.8333
X    2.7275 -1.4616 1.7142
X    -6.1455 -2.4429 -4.8119
X    -10.1929 7.1687 -4.2249
X    -8.0497 -0.6592 3.2651
X    -4.4144 7.0806 6.1838
X    -0.2217 3.0144 -8.5230
X    -2.2608 11.9597 -3.1697
X    4.3546 6.9446 -0.1337
   0    1 A
   0    5 A
   0   10 S
   1    2 A
   1   48 S
   2    3 A
   2   49 S
   3    4 A
   3  117 S
   4    5 A
   4   50 S
   5   51 S
   6    7 A
   6   11 A
   6   15 S
   7    8 A
   7   52 S
   8    9 A
   8  110 S
   9   10 A
   9   53 S
  10   11 A
  11   54 S
  12   13 A
  12   17 A
  12  118 S
  13   14 A
  13   55 S
  14   15 A
  14   56 S
  15   16 A
  16   17 A
  16   57 S
  17   58 S
  18   19 A
  18   23 A
  18   28 S
  19   20 A
  19   62 S
  20   21 A
  20   63 S
  21   22 A
  21  119 S
  22   23 A
  22   64 S
  23   65 S
  24   25 A
  24   29 A
  24   33 S
  25   26 A
  25   66 S
  26   27 A
  26  110 S
  27   28 A
  27   67 S
  28   29 A
  29   68 S
  30   31 A
  30   35 A
  30  120 S
  31   32 A
  31   69 S
  32   33 A
  32   70 S
  33   34 A
  34   35 A
  34   71 S
  35   72 S
  36   37 A
  36   41 A
  36   46 S
  37   38 A
  37   91 S
  38   39 A
  38   92 S
  39   40 S
  39  121 S
  40   41 S
  40   93 S
  41   94 S
  42   43 A
  42   47 A
  42  116 S
  43   44 A
  43   95 S
  44   45 A
  44  110 S
  45   46 A
  45   96 S
  46   47 A
  47   97 S
  59   99 S
  59  115 A
  59  116 A
  60   61 A
  60  100 S
  60  116 A
  61  101 S
  61  114 A
  73   74 A
  73   78 A
  73   83 S
  74   75 S
  74  102 S
  75   76 S
  75  103 S
  76   77 A
  76  122 S
  77   78 A
  77  104 S
  78  105 S
  79   80 A
  79   84 A
  79   88 S
  80   81 A
  80  106 S
  81   82 A
  81  110 S
  82   83 A
  82  107 S
  83   84 A
  84  108 S
  85   86 A
  85   90 A
  85  123 S
  86   87 A
  86  109 S
  87   88 A
  87  111 S
  88   89 A
  89   90 A
  89  112 S
  90  113 S
  98  115 S
 114  115 A
 114  124 S
