45
   41   42   43   44
Zn   0.0000 0.0000 0.0000
C    -0.8092 -1.3977 2.5861
C    -0.8844 -2.3106 3.6129
C    0.0148 -3.3910 3.5879
C    0.8634 -3.5127 2.4988
C    0.8400 -2.5693 1.5175
C    0.8092 1.3977 2.5861
C    0.8844 2.3107 3.6129
C    -0.0148 3.3910 3.5879
C    -0.8635 3.5127 2.4988
C    -0.8400 2.5693 1.5175
N    -0.0259 -1.5107 -1.5455
N    0.0259 1.5107 -1.5455
N    0.0259 -1.5107 1.5455
N    -0.0259 1.5107 1.5455
H    1.3852 -0.6434 -2.6175
H    -0.0407 -4.0214 -4.2975
H    -1.4580 -4.2518 -2.4362
H    -1.4309 -2.6671 -0.7801
H    -1.3852 0.6434 -2.6175
H    0.0407 4.0213 -4.2975
H    1.4580 4.2518 -2.4362
H    1.4309 2.6671 -0.7801
H    -1.3852 -0.6434 2.6175
H    0.0407 -4.0213 4.2975
H    1.4580 -4.2518 2.4362
H    1.4309 -2.6671 0.7801
H    1.3852 0.6434 2.6175
H    -0.0407 4.0214 4.2975
H    -1.4580 4.2518 2.4362
H    -1.4309 2.6671 0.7801
C    0.8092 -1.3977 -2.5861
C    0.8844 -2.3107 -3.6129
C    -0.0148 -3.3910 -3.5879
C    -0.8634 -3.5127 -2.4988
C    -0.8400 -2.5693 -1.5175
C    -0.8092 1.3977 -2.5861
C    -0.8844 2.3106 -3.6129
C    0.0148 3.3910 -3.5879
C    0.8635 3.5127 -2.4988
C    0.8400 2.5693 -1.5175
X    -1.6431 -2.5813 3.7831
X    1.2469 2.3833 4.3437
X    1.5198 -1.8843 -3.8447
X    -1.1235 2.0824 -4.2820
   0   11 S
   0   12 S
   0   13 S
   0   14 S
   1    2 A
   1   13 A
   1   23 S
   2    3 A
   2   41 S
   3    4 A
   3   24 S
   4    5 A
   4   25 S
   5   13 A
   5   26 S
   6    7 A
   6   14 A
   6   27 S
   7    8 A
   7   42 S
   8    9 A
   8   28 S
   9   10 A
   9   29 S
  10   14 A
  10   30 S
  11   31 A
  11   35 A
  12   36 A
  12   40 A
  15   31 S
  16   33 S
  17   34 S
  18   35 S
  19   36 S
  20   38 S
  21   39 S
  22   40 S
  31   32 A
  32   33 A
  32   43 S
  33   34 A
  34   35 A
  36   37 A
  37   38 A
  37   44 S
  38   39 A
  39   40 A
