15
13	14
O	2.7380	0.6299	0.9737
C	2.3057	-0.0746	0.0071
O	1.2697	0.1978	-0.6879
C	3.0512	-1.3167	-0.3569
C	2.6819	-2.1578	-1.3911
C	3.5524	-3.2801	-1.5182
C	4.5598	-3.2789	-0.5707
C	5.5877	-4.3565	-0.4555
O	6.4725	-4.2573	0.4524
O	5.5027	-5.3199	-1.2895
S	4.4591	-1.8937	0.4359
H	1.8189	-1.9685	-2.0177
H	3.4484	-4.0654	-2.2567
X	1.7068	0.9233	0.2995
X	6.4135	-5.2222	-0.3629
0	1	S
1	2	S
1	3	S
3	4	D
3	10	S
4	5	S
4	11	S
5	6	D
5	12	S
6	7	S
6	10	S
7	8	S
7	9	S
13	0	S
14	8	S
