36
34	35
C	0.9190	-0.6241	0.3474
O	2.2506	-0.1685	0.1534
C	3.0041	0.0504	1.2726
C	2.7233	-0.6021	2.4822
C	3.5312	-0.4211	3.6024
C	4.6549	0.4072	3.5470
C	4.9353	1.0609	2.3306
C	4.1236	0.8965	1.1903
O	4.5631	1.6145	0.0946
S	3.7666	1.7088	-1.3253
C	4.7799	2.7936	-2.3389
C	5.8250	2.2397	-3.0862
C	6.4940	3.0252	-4.0319
C	6.1250	4.3629	-4.2564
C	5.0788	4.9014	-3.4852
C	4.4092	4.1278	-2.5294
C	6.8204	5.1938	-5.3232
O	6.4258	6.3942	-5.4735
O	7.7391	4.6267	-5.9939
O	3.8114	0.4241	-2.0043
O	2.5046	2.4096	-1.1333
C	5.5376	0.5672	4.7701
O	6.5482	1.3304	4.6595
O	5.2024	-0.0769	5.8126
H	0.4292	-0.6600	-0.6297
H	0.3592	0.0691	0.9840
H	0.8946	-1.6409	0.7529
H	1.8921	-1.2883	2.5883
H	3.2970	-0.9444	4.5284
H	5.8155	1.7016	2.2822
H	6.1012	1.1953	-2.9735
H	7.2942	2.5913	-4.6306
H	4.7716	5.9322	-3.6642
H	3.5848	4.5671	-1.9747
X	7.2824	5.8345	-6.2266
X	5.8110	0.3171	5.9115
0	1	S
0	24	S
0	25	S
0	26	S
1	2	S
2	3	D
2	7	S
3	4	S
3	27	S
4	5	D
4	28	S
5	6	S
5	21	S
6	7	D
6	29	S
7	8	S
8	9	S
9	10	S
9	19	S
9	20	S
10	11	D
10	15	S
11	12	S
11	30	S
12	13	D
12	31	S
13	14	S
13	16	S
14	15	D
14	32	S
15	33	S
16	17	S
16	18	S
21	22	S
21	23	S
34	17	S
35	22	S
