35
33	34
O	1.5759	-0.4767	-0.2615
C	1.5333	0.4528	-1.1234
O	0.7585	0.5107	-2.1288
C	2.4761	1.6249	-0.9150
C	2.4720	2.7114	-1.7979
C	3.2345	3.8530	-1.5395
C	4.0148	3.9344	-0.3784
N	4.4578	5.2060	0.0877
C	4.8017	5.4941	1.4007
N	4.2335	6.6113	1.7994
C	3.7241	7.1584	0.6383
C	2.8771	8.2428	0.4400
C	2.6559	8.6870	-0.8777
C	1.6886	9.6601	-1.1537
C	1.6638	10.2973	-2.3911
C	2.6337	9.9923	-3.3394
C	3.4719	8.8936	-3.1440
C	3.4462	8.1847	-1.9338
C	4.1650	6.9845	-1.7642
C	4.1959	6.4474	-0.4705
C	4.1028	2.8138	0.4621
C	3.3310	1.6771	0.1962
H	1.8039	2.6893	-2.6592
H	3.0975	4.6858	-2.2185
H	5.3187	4.7958	2.0434
H	2.4046	8.7098	1.2858
H	0.9483	9.9228	-0.4017
H	0.9080	11.0482	-2.5996
H	2.7214	10.5923	-4.2399
H	4.1674	8.6115	-3.9311
H	4.6283	6.4721	-2.6006
H	4.6774	2.8131	1.3825
H	3.3322	0.8429	0.8975
X	4.2017	6.9201	2.6442
X	0.7883	-0.4734	-1.2881
0	1	S
1	2	S
1	3	S
3	4	D
3	21	S
4	5	S
4	22	S
5	6	D
5	23	S
6	7	S
6	20	S
7	8	S
7	19	S
8	9	S
8	24	S
9	10	S
10	11	S
10	19	D
11	12	D
11	25	S
12	13	S
12	17	S
13	14	D
13	26	S
14	15	S
14	27	S
15	16	D
15	28	S
16	17	S
16	29	S
17	18	D
18	19	S
18	30	S
20	21	D
20	31	S
21	32	S
9	33	S
34	0	S
