24
22	23
C	1.0354	-1.2823	0.1690
O	2.4594	-1.2758	0.2036
C	3.0368	-0.8461	-0.9508
O	2.4294	-0.4844	-1.9469
C	4.5138	-0.9503	-0.8465
C	5.1720	-0.8253	0.3826
C	6.5706	-0.9468	0.4723
C	7.2562	-0.8127	1.8227
O	8.5209	-0.9308	1.8728
O	6.5061	-0.5868	2.8308
C	7.2914	-1.2026	-0.7155
C	6.6489	-1.3297	-1.9680
C	7.4187	-1.6321	-3.2435
O	6.7401	-1.7321	-4.3192
O	8.6801	-1.7755	-3.1668
C	5.2505	-1.1847	-2.0117
H	0.6730	-1.5706	1.1592
H	0.6746	-2.0170	-0.5580
H	0.6471	-0.2855	-0.0629
H	4.6092	-0.6288	1.2930
H	8.3764	-1.3099	-0.6638
H	4.7412	-1.2776	-2.9699
X	7.7973	-0.7069	2.8885
X	8.0264	-1.8708	-4.2504
0	1	S
0	16	S
0	17	S
0	18	S
1	2	S
2	3	D
2	4	S
4	5	D
4	15	S
5	6	S
5	19	S
6	7	S
6	10	D
7	8	S
7	9	S
10	11	S
10	20	S
11	12	S
11	15	D
12	13	S
12	14	S
15	21	S
22	8	S
23	13	S
