22
20	21
O	1.1536	2.4762	-0.1910
C	2.4189	2.6128	-0.2836
O	3.0542	3.6918	-0.4547
C	3.1925	1.2888	-0.1609
N	4.6500	1.1582	-0.2218
C	5.3087	-0.0517	-0.1263
N	6.6204	0.1005	0.2778
C	7.3586	-0.9165	1.0333
C	8.8880	-1.0146	0.8730
O	9.5734	-0.0142	1.2438
O	9.3194	-2.1484	0.4866
C	6.7552	1.4778	0.4858
C	5.5911	2.0993	0.1967
H	2.7805	0.6421	-0.9465
H	2.8684	0.8504	0.7941
H	4.8058	-1.0079	-0.1671
H	6.9413	-1.9030	0.7900
H	7.1604	-0.7668	2.1034
H	7.6734	1.8828	0.8830
H	5.3308	3.1415	0.2977
X	1.8154	3.6456	-0.3793
X	10.0790	-1.0910	0.7482
0	1	S
1	2	S
1	3	S
3	4	S
3	13	S
3	14	S
4	5	S
4	12	S
5	6	S
5	15	S
6	7	S
6	11	S
7	8	S
7	16	S
7	17	S
8	9	S
8	10	S
11	12	D
11	18	S
12	19	S
20	0	S
21	9	S
