16
14	15
O	1.3440	0.3875	-0.7570
C	2.3324	-0.0339	-0.0709
O	2.7306	0.4840	1.0228
C	3.0807	-1.2332	-0.5964
C	2.7128	-1.8589	-1.7982
C	3.4102	-2.9785	-2.2711
C	4.4938	-3.5099	-1.5532
C	4.8611	-2.8798	-0.3601
C	4.1671	-1.7594	0.1098
C	5.2427	-4.7268	-2.0375
O	6.2106	-5.1526	-1.3280
O	4.8556	-5.2556	-3.1316
H	1.8708	-1.4675	-2.3650
H	3.1076	-3.4480	-3.2047
X	1.8158	0.9245	0.4336
X	5.9107	-5.6787	-2.3336
0	1	S
1	2	S
1	3	S
3	4	D
3	8	S
4	5	S
4	12	S
5	6	D
5	13	S
6	7	S
6	9	S
7	8	D
9	10	S
9	11	S
14	0	S
15	10	S
