28
26	27
O	1.4179	1.1377	0.1617
C	1.7868	-0.0772	0.1212
O	1.3176	-0.9388	-0.7010
C	2.8150	-0.6000	1.1177
C	2.5281	-1.8871	1.6456
C	3.3769	-2.5272	2.5400
C	4.5655	-1.9171	2.8923
C	4.8824	-0.6551	2.3752
C	4.0067	0.0722	1.5288
C	4.4081	1.4517	1.1076
C	4.2894	1.7820	-0.2672
C	4.5284	3.0655	-0.7661
C	4.9507	4.0664	0.0898
C	5.1672	3.7603	1.4289
C	4.9195	2.4690	1.9694
C	5.2556	2.3230	3.4515
O	6.2572	3.0059	3.8696
O	4.5487	1.5867	4.2038
H	1.6037	-2.3773	1.3422
H	3.1021	-3.4888	2.9575
H	5.2429	-2.3852	3.5970
H	5.8197	-0.2014	2.6889
H	3.9431	1.0270	-0.9708
H	4.3400	3.2746	-1.8138
H	5.1041	5.0762	-0.2689
H	5.5214	4.5425	2.0994
X	0.9774	0.3344	-0.6633
X	5.5198	2.2082	4.6164
0	1	S
1	2	S
1	3	S
3	4	D
3	8	S
4	5	S
4	18	S
5	6	D
5	19	S
6	7	S
6	20	S
7	8	D
7	21	S
8	9	S
9	10	D
9	14	S
10	11	S
10	22	S
11	12	D
11	23	S
12	13	S
12	24	S
13	14	D
13	25	S
14	15	S
15	16	S
15	17	S
26	0	S
27	16	S
