28
26	27
O	1.2004	-0.4779	-0.7226
C	2.2178	-0.1003	-0.0616
O	2.6291	1.0995	0.0440
C	3.0112	-1.1687	0.6693
C	4.1487	-0.8104	1.4394
C	4.8956	-1.7590	2.1517
C	4.5007	-3.0830	2.0903
C	3.3870	-3.4423	1.3137
C	2.6326	-2.5225	0.6060
C	3.2147	-4.9115	1.4370
O	2.3706	-5.5927	0.8918
C	4.2808	-5.3837	2.3553
C	4.5383	-6.6611	2.8238
C	5.6087	-6.8319	3.7210
C	5.9380	-8.2002	4.2921
O	6.9169	-8.2684	5.1027
O	5.2145	-9.1772	3.9226
C	6.3766	-5.6991	4.0964
C	6.1003	-4.4152	3.6052
C	5.0402	-4.2639	2.7305
H	4.4393	0.2396	1.4793
H	5.7530	-1.4474	2.7366
H	1.7677	-2.8326	0.0264
H	3.9275	-7.5053	2.5177
H	7.2019	-5.8389	4.7950
H	6.7033	-3.5719	3.9207
X	1.5907	0.7441	-0.6393
X	6.1982	-9.2813	4.7433
0	1	S
1	2	S
1	3	S
3	4	D
3	8	S
4	5	S
4	20	S
5	6	D
5	21	S
6	7	S
6	19	S
7	8	D
7	9	S
8	22	S
9	10	D
9	11	S
11	12	S
11	19	D
12	13	D
12	23	S
13	14	S
13	17	S
14	15	S
14	16	S
17	18	D
17	24	S
18	19	S
18	25	S
26	0	S
27	15	S
