22
20	21
C	1.4141	0.6781	-0.5259
O	2.5129	-0.0593	-0.0068
C	3.1836	-0.8388	-0.9168
C	2.8326	-0.9921	-2.2595
C	3.5779	-1.8087	-3.1284
C	4.7064	-2.4746	-2.6068
C	5.0920	-2.3342	-1.2549
C	4.3033	-1.5130	-0.4250
C	6.3244	-3.0260	-0.6920
O	6.5896	-2.8343	0.5415
O	7.0220	-3.7474	-1.4757
C	3.1503	-1.9357	-4.5820
O	3.8311	-2.6866	-5.3502
O	2.1208	-1.2720	-4.9442
H	0.9831	1.2614	0.2938
H	0.6305	0.0106	-0.9013
H	1.7392	1.3844	-1.2973
H	1.9717	-0.4844	-2.6830
H	5.3005	-3.1094	-3.2654
H	4.5842	-1.3991	0.6200
X	7.2975	-3.6200	-0.3175
X	2.9688	-2.1718	-5.7445
0	1	S
0	14	S
0	15	S
0	16	S
1	2	S
2	3	D
2	7	S
3	4	S
3	17	S
4	5	D
4	11	S
5	6	S
5	18	S
6	7	D
6	8	S
7	19	S
8	9	S
8	10	S
11	12	S
11	13	S
20	9	S
21	12	S
