14
12	13
O	1.2792	-0.4727	-0.7865
C	2.3039	-0.0891	-0.1294
O	2.6369	1.1263	0.0404
C	3.1662	-1.1616	0.4769
C	2.8335	-2.5044	0.2712
C	3.6042	-3.5270	0.8133
C	4.7235	-3.2152	1.5773
C	5.0914	-1.8865	1.8124
C	4.3021	-0.8663	1.2516
C	6.3017	-1.5962	2.6564
O	6.6240	-0.3833	2.8591
O	6.9366	-2.6008	3.1233
X	1.4594	0.5248	-0.7209
X	7.2857	-1.6716	3.3391
0	1	S
1	2	S
1	3	S
3	4	D
3	8	S
4	5	S
5	6	D
6	7	S
7	8	D
7	9	S
9	10	S
9	11	S
12	0	S
13	10	S
