18
16	17
O	3.0353	0.8156	-0.7169
C	2.3556	-0.0325	-0.0524
O	1.1243	0.0806	0.2468
C	3.0596	-1.2729	0.4079
C	2.7086	-2.5369	-0.0999
Br	1.3981	-2.6505	-1.5016
C	3.3451	-3.7104	0.3812
Br	2.7062	-5.4374	-0.1674
C	4.4139	-3.6211	1.3018
C	5.1117	-4.8587	1.7913
O	5.0483	-5.1058	3.0374
O	5.7139	-5.5697	0.9274
C	4.8045	-2.3442	1.7687
Br	6.3536	-2.1797	2.8988
C	4.1061	-1.1874	1.3638
Br	4.4957	0.5180	2.1758
X	1.7919	0.9607	-0.4210
X	5.6689	-5.8470	2.1822
0	1	S
1	2	S
1	3	S
3	4	D
3	14	S
4	5	S
4	6	S
6	7	S
6	8	D
8	9	S
8	12	S
9	10	S
9	11	S
12	13	S
12	14	D
14	15	S
16	0	S
17	10	S
