40
38	39
O	1.1184	-0.0695	-0.0923
C	2.3873	-0.1154	0.0064
O	3.0775	-1.1775	0.1329
C	3.1334	1.2022	-0.0274
C	2.4938	2.4080	-0.2825
C	3.1786	3.6506	-0.3832
C	2.2627	4.7721	-0.7772
C	4.5900	3.7497	-0.0972
C	5.2172	2.5084	0.2369
C	4.5054	1.2746	0.1965
C	6.6529	2.3219	0.6567
C	5.3682	5.0910	-0.1287
C	4.8947	6.2682	0.5423
C	3.6640	6.3636	1.4001
C	5.5799	7.5099	0.4480
C	6.8208	7.6468	-0.1777
C	7.3382	6.5001	-0.7593
C	6.6247	5.2643	-0.8080
C	7.3567	4.2070	-1.6015
C	7.5476	8.9757	-0.2075
O	8.7187	8.9860	-0.7041
O	6.9412	9.9913	0.2658
H	1.4108	2.3737	-0.4247
H	1.4549	4.4192	-1.4236
H	2.7948	5.5484	-1.3344
H	1.7619	5.1928	0.1075
H	5.0327	0.3363	0.3809
H	7.1118	3.2381	1.0285
H	7.2292	1.9041	-0.1777
H	6.7172	1.5966	1.4762
H	3.3224	5.3956	1.7643
H	2.8714	6.8799	0.8418
H	3.8720	6.9719	2.2860
H	5.1512	8.4070	0.8995
H	8.3277	6.5773	-1.2160
H	7.9507	4.6666	-2.4015
H	6.6791	3.5023	-2.0826
H	8.0830	3.6921	-0.9659
X	1.7920	-1.1571	0.0284
X	8.1368	10.0207	-0.2346
0	1	S
1	2	S
1	3	S
3	4	D
3	9	S
4	5	S
4	22	S
5	6	S
5	7	D
6	23	S
6	24	S
6	25	S
7	8	S
7	11	S
8	9	D
8	10	S
9	26	S
10	27	S
10	28	S
10	29	S
11	12	D
11	17	S
12	13	S
12	14	S
13	30	S
13	31	S
13	32	S
14	15	D
14	33	S
15	16	S
15	19	S
16	17	D
16	34	S
17	18	S
18	35	S
18	36	S
18	37	S
19	20	S
19	21	S
38	0	S
39	20	S
