17
15	16
N	2.3011	-0.1422	0.2189
C	0.9114	-0.0976	0.0893
C	0.1728	-1.2717	0.0915
C	-1.2223	-1.2123	0.0126
C	-2.0564	-2.4705	-0.0241
O	-3.3129	-2.3233	-0.1044
O	-1.4310	-3.5768	0.0147
C	-1.8185	0.0499	-0.0302
C	-1.0013	1.1673	-0.0161
N	0.3507	1.1248	0.0336
H	2.7021	-0.8400	-0.3953
H	2.6408	0.7988	0.0528
H	0.6646	-2.2386	0.1488
H	-2.8989	0.1448	-0.0702
H	-1.4329	2.1626	-0.0430
X	0.8520	1.8723	0.0298
X	-2.7193	-3.4704	-0.0533
0	1	S
0	10	S
0	11	S
1	2	D
1	9	S
2	3	S
2	12	S
3	4	S
3	7	D
4	5	S
4	6	S
7	8	S
7	13	S
8	9	S
8	14	S
9	15	S
16	5	S
