15
13	14
O	1.4211	0.7122	-0.7225
C	2.1554	0.1104	0.1098
O	2.2953	0.3371	1.3498
C	2.8183	-1.1394	-0.3846
C	2.5821	-2.3561	0.3510
C	2.9871	-3.5217	-0.1527
C	3.6488	-3.4408	-1.4656
N	3.9713	-2.3738	-2.1142
C	3.6932	-1.1297	-1.5680
O	4.1904	-0.1074	-2.0203
H	2.0644	-2.2855	1.3027
H	2.8358	-4.4759	0.3273
H	3.8837	-4.4165	-1.9214
X	4.3720	-2.4920	-2.9114
X	1.6246	1.1112	0.5057
0	1	S
1	2	S
1	3	S
3	4	S
3	8	S
4	5	D
4	10	S
5	6	S
5	11	S
6	7	S
6	12	S
7	8	S
8	9	D
7	13	S
14	0	S
