15
13	14
O	1.2582	0.6428	0.2358
C	2.2963	-0.0651	0.0496
O	2.7243	-0.9814	0.8174
C	3.0904	0.2090	-1.1939
C	2.7169	1.2037	-2.1084
C	3.4889	1.4190	-3.2420
Br	3.0207	2.7531	-4.4904
C	4.6143	0.6322	-3.4355
N	5.0146	-0.3396	-2.5836
C	4.2379	-0.5240	-1.4809
H	1.8244	1.7940	-1.9120
H	5.2499	0.7604	-4.3054
H	4.5742	-1.3078	-0.8044
X	5.7643	-0.7170	-2.9084
X	1.7204	-0.3495	1.0632
0	1	S
1	2	S
1	3	S
3	4	D
3	9	S
4	5	S
4	10	S
5	6	S
5	7	D
7	8	S
7	11	S
8	9	S
9	12	S
8	13	S
14	0	S
