12
10	11
O	0.9705	0.1499	-0.0276
C	2.2934	-0.0268	0.0762
O	2.8400	1.3026	-0.2801
C	2.9119	-0.4475	1.5216
O	2.4142	-1.4397	2.1562
O	3.8636	0.2959	1.9714
C	3.0564	-1.0807	-0.8918
O	2.4792	-2.1472	-1.2852
O	4.2142	-0.6732	-1.2995
H	3.7792	1.0396	-0.3885
X	3.3679	-0.7577	2.5873
X	3.6210	-1.8606	-1.6081
0	1	S
1	2	S
1	3	S
1	6	S
2	9	S
3	4	S
3	5	S
6	7	S
6	8	S
10	4	S
11	7	S
