31
29	30
O	1.0101	0.6023	-0.3873
C	2.0409	-0.0153	0.0453
O	2.4021	-0.0207	1.2686
C	2.8849	-0.7967	-0.9551
C	2.5339	-0.8795	-2.3171
C	3.3080	-1.6092	-3.2447
C	4.4610	-2.2612	-2.7695
C	4.8841	-2.1729	-1.4275
C	4.0635	-1.4465	-0.5395
C	6.1734	-2.7602	-0.9759
C	7.2917	-2.8144	-1.8351
C	8.5328	-3.3010	-1.4035
C	8.6995	-3.7428	-0.0895
C	7.5928	-3.7071	0.7712
C	6.3510	-3.2359	0.3355
P	10.3055	-4.4438	0.4380
O	10.3702	-3.2865	1.4732
O	9.5404	-5.7663	0.7273
O	11.8237	-5.1065	0.9366
C	2.9348	-1.6785	-4.7200
O	3.6837	-2.3634	-5.4952
O	1.9003	-1.0450	-5.1146
H	1.6425	-0.3586	-2.6649
H	5.0448	-2.8407	-3.4832
H	4.3548	-1.3459	0.5055
H	7.2132	-2.4572	-2.8574
H	9.3781	-3.3457	-2.0801
H	7.7450	-4.0789	1.7819
H	5.5284	-3.2493	1.0434
X	1.0755	0.6229	0.3626
X	2.2198	-1.4888	-5.6649
0	1	S
1	2	S
1	3	S
3	4	D
3	8	S
4	5	S
4	22	S
5	6	D
5	19	S
6	7	S
6	23	S
7	8	D
7	9	S
8	24	S
9	10	D
9	14	S
10	11	S
10	25	S
11	12	D
11	26	S
12	13	S
12	15	S
13	14	D
13	27	S
14	28	S
15	16	D
15	17	S
15	18	S
19	20	S
19	21	S
29	0	S
30	20	S
