24
22	23
O	2.6372	3.1970	-1.4095
C	2.5919	2.0122	-1.8654
O	2.1675	1.6304	-2.9961
C	2.9974	0.9034	-0.8856
C	4.4878	0.6248	-0.7654
C	5.3370	1.7214	-0.5030
C	6.7051	1.5585	-0.3016
C	7.2581	0.2869	-0.3476
C	6.4415	-0.8144	-0.6040
C	5.0503	-0.6793	-0.7999
C	4.2300	-1.9152	-1.1390
C	4.7351	-3.2555	-0.5947
O	4.2629	-3.6179	0.5246
O	5.5393	-3.8933	-1.3413
H	2.4379	0.0099	-1.1740
H	2.6317	1.1731	0.1131
H	4.9169	2.7274	-0.4617
H	7.3296	2.4251	-0.1128
H	8.3218	0.1412	-0.1909
H	6.9033	-1.8000	-0.6530
H	4.1653	-1.9807	-2.2330
H	3.2093	-1.8116	-0.7605
X	2.2747	2.8794	-2.6317
X	5.1307	-4.3052	-0.1684
0	1	S
1	2	S
1	3	S
3	4	S
3	14	S
3	15	S
4	5	D
4	9	S
5	6	S
5	16	S
6	7	D
6	17	S
7	8	S
7	18	S
8	9	D
8	19	S
9	10	S
10	11	S
10	20	S
10	21	S
11	12	S
11	13	S
22	0	S
23	12	S
