26
24	25
N	1.0058	-0.1336	-0.0317
C	2.4327	-0.0299	0.1011
C	3.1735	-1.2516	0.0804
N	2.4206	-2.4692	0.2027
C	4.5844	-1.2576	0.0995
C	5.3739	-2.5536	0.1032
O	6.6012	-2.5093	0.4567
O	4.7660	-3.6262	-0.2446
C	5.2308	-0.0032	0.1166
N	6.6575	0.0996	-0.0081
C	4.4898	1.2172	0.0846
N	5.2419	2.4353	0.2107
C	3.0798	1.2235	0.0903
C	2.2925	2.5215	0.0859
O	2.9026	3.5923	-0.2609
O	1.0598	2.4768	0.4291
H	0.7009	-0.8477	0.6226
H	0.6210	0.7996	0.2127
H	1.6530	-2.4069	-0.4592
H	3.0722	-3.2409	-0.0377
H	7.0421	-0.8325	0.2405
H	6.9578	0.8153	0.6462
H	6.0159	2.3728	-0.4436
H	4.5927	3.2071	-0.0378
X	5.9982	-3.5784	0.1061
X	1.6702	3.5475	0.0824
0	1	S
0	16	S
0	17	S
1	2	D
1	12	S
2	3	S
2	4	S
3	18	S
3	19	S
4	5	S
4	8	D
5	6	S
5	7	S
8	9	S
8	10	S
9	20	S
9	21	S
10	11	S
10	12	D
11	22	S
11	23	S
12	13	S
13	14	S
13	15	S
24	6	S
25	14	S
