21
19	20
O	1.2152	-0.2308	0.6761
C	2.3649	-0.0218	0.1690
O	2.8745	-0.7044	-0.7720
C	3.1725	1.1170	0.7737
C	2.8562	1.5052	2.0921
C	3.5382	2.5352	2.7261
C	4.5513	3.2015	2.0460
C	4.9019	2.8713	0.7457
C	4.2155	1.8167	0.0882
C	4.6316	1.5577	-1.2345
C	5.6512	2.2881	-1.8329
C	6.2412	3.2861	-1.0924
N	5.8909	3.5901	0.1728
H	2.0563	0.9853	2.6195
H	3.2775	2.8164	3.7411
H	5.0821	4.0103	2.5412
H	4.1621	0.7719	-1.8203
H	5.9624	2.0699	-2.8461
H	7.0390	3.8912	-1.5108
X	6.5385	4.2099	0.0925
X	1.5550	-0.9021	0.0741
0	1	S
1	2	S
1	3	S
3	4	D
3	8	S
4	5	S
4	13	S
5	6	D
5	14	S
6	7	S
6	15	S
7	8	D
7	12	S
8	9	S
9	10	D
9	16	S
10	11	S
10	17	S
11	12	S
11	18	S
12	19	S
20	0	S
