35
33	34
C	-0.7880	-1.1673	-0.0873
C	0.7280	-1.2049	0.1952
C	1.3842	0.1864	0.0398
Si	-0.0240	1.4360	-0.2851
C	-1.3604	0.2077	0.2885
C	0.0987	3.0027	0.6979
C	1.2160	3.8454	0.5906
C	1.2677	5.0064	1.3516
N	0.2998	5.3870	2.2078
C	-0.7691	4.5723	2.3083
C	-0.9142	3.3938	1.5863
C	-0.1714	1.8440	-2.1078
C	0.1696	0.8921	-3.0837
C	0.0427	1.2126	-4.4269
N	-0.3939	2.4085	-4.8743
C	-0.7202	3.3157	-3.9319
C	-0.6310	3.0880	-2.5655
H	-1.3026	-1.9626	0.4633
H	-0.9639	-1.3622	-1.1534
H	1.2104	-1.9207	-0.4820
H	0.9067	-1.5784	1.2107
H	2.1205	0.1966	-0.7689
H	1.9001	0.4529	0.9688
H	-2.3275	0.3912	-0.1877
H	-1.4801	0.2776	1.3748
H	2.0438	3.6186	-0.0767
H	2.1188	5.6774	1.2884
H	-1.5349	4.8961	3.0076
H	-1.8140	2.8025	1.7337
H	0.5310	-0.0985	-2.8229
H	0.2974	0.4938	-5.2004
H	-1.0704	4.2704	-4.3162
H	-0.9212	3.8840	-1.8834
X	0.3635	6.1007	2.7524
X	-0.4698	2.5460	-5.7605
0	1	S
0	4	S
0	17	S
0	18	S
1	2	S
1	19	S
1	20	S
2	3	S
2	21	S
2	22	S
3	4	S
3	5	S
3	11	S
4	23	S
4	24	S
5	6	D
5	10	S
6	7	S
6	25	S
7	8	S
7	26	S
8	9	S
9	10	D
9	27	S
10	28	S
11	12	D
11	16	S
12	13	S
12	29	S
13	14	S
13	30	S
14	15	S
15	16	D
15	31	S
16	32	S
8	33	S
14	34	S
