22
20	21
O	4.2322	1.4008	3.1270
C	5.2938	1.6053	2.4664
O	6.1045	2.5742	2.5624
C	5.7122	0.4836	1.5065
S	4.9450	0.7778	-0.1272
C	5.7950	2.3271	-0.6399
C	7.3215	2.2698	-0.7569
S	8.0143	1.0611	-1.9596
C	7.2654	1.6523	-3.5198
C	7.8248	3.0429	-3.8510
O	7.1247	4.0216	-3.4550
O	8.8759	3.0625	-4.5584
H	5.3458	-0.4754	1.8873
H	6.7986	0.4047	1.4220
H	5.5103	3.1195	0.0588
H	5.3561	2.6196	-1.5989
H	7.7631	2.0295	0.2147
H	7.7076	3.2617	-1.0102
H	6.1747	1.6577	-3.4543
H	7.5394	0.9524	-4.3158
X	4.8689	1.5070	3.5844
X	8.2661	3.4366	-4.8951
0	1	S
1	2	S
1	3	S
3	4	S
3	12	S
3	13	S
4	5	S
5	6	S
5	14	S
5	15	S
6	7	S
6	16	S
6	17	S
7	8	S
8	9	S
8	18	S
8	19	S
9	10	S
9	11	S
20	0	S
21	10	S
