22
20	21
O	1.0614	0.5305	0.1735
C	2.3216	0.3337	0.0661
C	3.2138	1.4289	0.0136
C	4.6065	1.3027	-0.1083
C	5.1823	0.0444	-0.1811
C	4.3625	-1.0751	-0.1225
C	2.9635	-0.9399	-0.0017
C	2.1737	-2.2052	0.0455
N	2.7372	-3.3656	0.1895
C	1.7650	-4.4903	0.2038
C	2.4655	-5.8642	-0.0104
O	2.7380	-6.5196	1.0435
O	2.5964	-6.2384	-1.2173
H	2.7912	2.4325	0.0729
H	5.2221	2.1935	-0.1459
H	6.2542	-0.0721	-0.2807
H	4.8010	-2.0686	-0.1784
H	1.0781	-2.1070	-0.0523
H	1.0132	-4.3663	-0.5857
H	1.2446	-4.5091	1.1695
X	3.6338	-3.3864	0.2652
X	3.0054	-6.9231	-0.1755
0	1	S
1	2	D
1	6	S
2	3	S
2	13	S
3	4	D
3	14	S
4	5	S
4	15	S
5	6	D
5	16	S
6	7	S
7	8	S
7	17	S
8	9	S
9	10	S
9	18	S
9	19	S
10	11	S
10	12	S
8	20	S
21	11	S
