10
8	9
Cl	1.1655	0.1399	0.0053
C	2.8775	0.0826	0.0078
C	3.6815	-1.0327	0.0096
Cl	3.1805	-2.6712	0.0098
N	4.9711	-0.6324	0.0122
C	4.9419	0.7200	0.0125
N	3.6686	1.1777	0.0094
H	5.8211	1.3526	0.0155
X	5.7938	-0.9973	0.0135
X	3.5851	2.0738	0.0088
0	1	S
1	2	D
1	6	S
2	3	S
2	4	S
4	5	S
5	6	S
5	7	S
4	8	S
6	9	S
