10
8	9
C	0.9909	-0.0300	-0.0404
C	2.4821	-0.0830	-0.0406
N	3.2867	0.9985	-0.0436
C	4.5536	0.5320	-0.0391
C	4.5038	-0.8455	-0.0340
N	3.2068	-1.2196	-0.0354
H	5.4276	1.1664	-0.0392
H	5.3297	-1.5414	-0.0294
X	2.9618	1.8378	-0.0480
X	2.8223	-2.0333	-0.0337
0	1	S
1	2	S
1	5	S
2	3	S
3	4	D
3	6	S
4	5	S
4	7	S
2	8	S
5	9	S
