28
26	27
C	5.0109	-2.2212	-1.1416
O	3.8444	-2.0163	-0.3469
C	3.0323	-1.0095	-0.8390
C	2.3942	-1.1650	-2.1605
C	2.1486	-2.4221	-2.7265
C	1.5514	-2.5608	-3.9936
C	1.1665	-1.3877	-4.6789
C	1.3804	-0.1034	-4.1318
C	2.0069	-0.0207	-2.8734
C	0.9568	1.1657	-4.8522
O	1.2631	2.2776	-4.3029
O	0.3270	1.0547	-5.9522
C	1.3407	-3.9491	-4.5798
O	0.7843	-4.0455	-5.7199
O	1.7498	-4.9412	-3.8878
O	2.3168	-0.2128	0.0345
C	3.1346	0.3338	1.0528
H	5.5535	-3.0721	-0.7171
H	5.6652	-1.3446	-1.0932
H	4.7864	-2.4657	-2.1834
H	2.4155	-3.3264	-2.1808
H	0.6855	-1.4754	-5.6542
H	2.1835	0.9668	-2.4491
H	2.4866	0.8925	1.7354
H	3.8600	1.0343	0.6265
H	3.6427	-0.4422	1.6343
X	0.4558	1.9117	-5.6475
X	0.9610	-4.8385	-5.2903
0	1	S
0	17	S
0	18	S
0	19	S
1	2	S
2	3	S
2	15	S
3	4	D
3	8	S
4	5	S
4	20	S
5	6	D
5	12	S
6	7	S
6	21	S
7	8	D
7	9	S
8	22	S
9	10	S
9	11	S
12	13	S
12	14	S
15	16	S
16	23	S
16	24	S
16	25	S
26	10	S
27	13	S
