23
21	22
O	3.4453	1.3324	2.6721
C	4.6596	1.0093	2.5372
O	5.6139	1.1429	3.3577
C	5.0148	0.2872	1.2347
C	4.6949	1.0830	-0.0297
C	5.5259	2.3583	-0.2169
C	7.0447	2.1607	-0.2942
C	7.5171	1.2614	-1.4352
C	7.2938	1.7763	-2.8608
O	7.3499	3.0278	-3.0255
O	7.1325	0.8706	-3.7319
H	4.4275	-0.6399	1.2196
H	6.0655	-0.0209	1.2418
H	3.6346	1.3642	-0.0261
H	4.8277	0.4311	-0.9013
H	5.3085	3.0497	0.6067
H	5.1842	2.8611	-1.1299
H	7.4065	1.7478	0.6549
H	7.5156	3.1471	-0.3878
H	7.0768	0.2630	-1.3329
H	8.6017	1.1248	-1.3326
X	4.1390	0.8494	3.6065
X	7.8172	1.9205	-3.9310
0	1	S
1	2	S
1	3	S
3	4	S
3	11	S
3	12	S
4	5	S
4	13	S
4	14	S
5	6	S
5	15	S
5	16	S
6	7	S
6	17	S
6	18	S
7	8	S
7	19	S
7	20	S
8	9	S
8	10	S
21	0	S
22	9	S
