31
29	30
O	0.9430	-0.1473	0.0003
P	2.6723	-0.1022	0.0202
O	2.7397	1.1174	-0.9419
O	2.7310	0.0622	1.5646
C	4.5015	-0.0545	0.0412
C	5.1982	1.0445	0.5678
C	6.5944	1.0525	0.6410
C	7.3495	-0.0462	0.1976
C	8.8333	-0.0748	0.3061
C	9.5206	0.5915	1.3429
C	10.9223	0.5426	1.4800
C	11.6220	1.2875	2.6097
O	12.8923	1.2034	2.6932
O	10.9013	1.9665	3.4162
C	11.6451	-0.2272	0.5427
C	11.0131	-0.9137	-0.5118
C	11.7897	-1.7671	-1.5044
O	11.1294	-2.3715	-2.4164
O	13.0563	-1.8454	-1.3758
C	9.6143	-0.8010	-0.6170
C	6.6337	-1.1404	-0.3389
C	5.2353	-1.1453	-0.4230
H	4.5981	1.8741	0.9355
H	7.0717	1.9307	1.0643
H	8.9609	1.1563	2.0883
H	12.7302	-0.2948	0.6400
H	9.1318	-1.3061	-1.4523
H	7.1615	-2.0252	-0.6808
H	4.7041	-1.9989	-0.8272
X	12.1732	1.8743	3.4996
X	12.4020	-2.4399	-2.2870
0	1	S
1	2	S
1	3	D
1	4	S
4	5	D
4	21	S
5	6	S
5	22	S
6	7	D
6	23	S
7	8	S
7	20	S
8	9	D
8	19	S
9	10	S
9	24	S
10	11	S
10	14	D
11	12	S
11	13	S
14	15	S
14	25	S
15	16	S
15	19	D
16	17	S
16	18	S
19	26	S
20	21	D
20	27	S
21	28	S
29	12	S
30	17	S
