27
25	26
O	2.8847	1.6324	1.1898
C	3.3939	0.6656	0.5403
O	3.8131	-0.4247	1.0480
C	3.5211	0.8203	-0.9632
C	3.0598	1.9800	-1.6224
C	3.1760	2.1566	-3.0178
C	3.7798	1.1117	-3.7410
C	4.2335	-0.0478	-3.1114
C	4.1037	-0.1928	-1.7359
C	2.6841	3.3845	-3.6969
C	2.7027	4.6403	-3.0639
C	2.2266	5.7960	-3.7031
C	1.7227	5.7470	-5.0094
C	1.7072	4.5030	-5.6523
C	2.1721	3.3473	-5.0075
C	1.2060	6.9944	-5.7039
O	0.7781	6.8601	-6.8972
O	1.2391	8.0858	-5.0535
H	2.5897	2.7492	-1.0099
H	3.9226	1.1903	-4.8145
H	4.4604	-1.0988	-1.2514
H	3.0944	4.7431	-2.0543
H	2.2464	6.7489	-3.1767
H	1.3177	4.4364	-6.6665
H	2.1076	2.4084	-5.5498
X	3.5713	0.0114	1.5305
X	0.8304	7.9497	-6.3255
0	1	S
1	2	S
1	3	S
3	4	D
3	8	S
4	5	S
4	18	S
5	6	D
5	9	S
6	7	S
6	19	S
7	8	D
8	20	S
9	10	D
9	14	S
10	11	S
10	21	S
11	12	D
11	22	S
12	13	S
12	15	S
13	14	D
13	23	S
14	24	S
15	16	S
15	17	S
25	0	S
26	16	S
