28
26	27
O	2.5470	0.2179	1.1679
C	2.1903	-0.0351	-0.0265
O	1.1853	0.4790	-0.6182
C	3.0180	-1.0368	-0.8103
C	2.6409	-1.4274	-2.1021
C	3.3979	-2.3533	-2.8152
C	4.5531	-2.8992	-2.2487
C	4.9891	-2.5272	-0.9632
C	6.2321	-3.0930	-0.3771
C	6.3574	-3.3103	1.0067
C	7.5245	-3.8448	1.5597
C	8.5919	-4.1947	0.7354
C	8.5175	-4.0067	-0.6510
C	9.6702	-4.4085	-1.5528
O	9.5390	-4.2065	-2.8026
O	10.6889	-4.9335	-0.9966
C	7.3391	-3.4417	-1.1818
C	4.1922	-1.5961	-0.2636
H	1.7445	-0.9971	-2.5462
H	3.0930	-2.6484	-3.8143
H	5.1151	-3.6284	-2.8272
H	5.5348	-3.0688	1.6757
H	7.5979	-3.9919	2.6323
H	9.4964	-4.6198	1.1655
H	7.3095	-3.2689	-2.2571
H	4.4838	-1.2660	0.7328
X	1.5358	0.7570	0.5933
X	10.5816	-4.7262	-2.2658
0	1	S
1	2	S
1	3	S
3	4	D
3	17	S
4	5	S
4	18	S
5	6	D
5	19	S
6	7	S
6	20	S
7	8	S
7	17	D
8	9	D
8	16	S
9	10	S
9	21	S
10	11	D
10	22	S
11	12	S
11	23	S
12	13	S
12	16	D
13	14	S
13	15	S
16	24	S
17	25	S
26	0	S
27	14	S
