36
34	35
N	-1.2019	-0.0592	0.0817
C	-0.5580	1.1263	0.0427
C	0.8221	1.2545	-0.0308
C	1.5955	0.0950	-0.0651
C	0.9549	-1.1421	-0.0169
C	-0.4311	-1.1668	0.0509
C	3.0292	0.1754	-0.1734
C	4.2271	0.2500	-0.3081
C	5.6476	0.3478	-0.5350
C	6.2667	1.5967	-0.6545
C	7.6365	1.6943	-0.9644
C	8.4091	0.5441	-1.1555
C	7.8001	-0.7048	-0.9928
C	6.4288	-0.8024	-0.6878
C	9.7901	0.6446	-1.5603
C	10.9264	0.7292	-1.9561
C	12.2653	0.8267	-2.4780
C	12.8449	2.0718	-2.7166
C	14.1232	2.1122	-3.2567
N	14.8467	1.0138	-3.5594
C	14.2667	-0.1794	-3.3108
C	12.9932	-0.3234	-2.7778
H	-1.2040	2.0000	0.0693
H	1.2722	2.2400	-0.0660
H	1.5116	-2.0718	-0.0369
H	-0.9765	-2.1065	0.0797
H	5.6869	2.5082	-0.5269
H	8.0864	2.6787	-1.0736
H	8.3803	-1.6161	-1.1211
H	5.9766	-1.7869	-0.5894
H	12.3220	2.9952	-2.4969
H	14.6138	3.0580	-3.4719
H	14.8725	-1.0457	-3.5637
H	12.5865	-1.3141	-2.6104
X	-2.0884	-0.1158	0.2266
X	15.7086	1.0741	-3.8112
0	1	S
0	5	S
1	2	S
1	22	S
2	3	D
2	23	S
3	4	S
3	6	S
4	5	D
4	24	S
5	25	S
6	7	A
7	8	S
8	9	D
8	13	S
9	10	S
9	26	S
10	11	D
10	27	S
11	12	S
11	14	S
12	13	D
12	28	S
13	29	S
14	15	A
15	16	S
16	17	D
16	21	S
17	18	S
17	30	S
18	19	S
18	31	S
19	20	S
20	21	D
20	32	S
21	33	S
0	34	S
19	35	S
