11
9	10
O	1.5758	0.8233	-0.6497
C	2.1560	-0.1704	-0.1112
O	1.5911	-1.1502	0.4672
C	3.6797	-0.1406	-0.0788
O	4.9909	-0.0090	0.1262
C	5.7367	-0.5626	-0.8337
C	6.7861	-1.1142	-1.7931
O	7.9947	-0.9252	-1.4516
O	6.3775	-1.7066	-2.8384
X	1.0158	0.0112	0.2158
X	7.8548	-1.3827	-2.2682
0	1	S
1	2	S
1	3	S
3	4	S
4	5	S
5	6	S
6	7	S
6	8	S
9	0	S
10	7	S
