12
10	11
C	0.7662	1.0943	-0.0002
C	-0.6162	1.1851	0.0039
N	-1.4146	0.0932	0.0053
C	-0.7659	-1.0938	0.0034
C	0.6164	-1.1846	0.0013
N	1.4149	-0.0928	-0.0010
H	1.3923	1.9790	-0.0028
H	-1.1211	2.1441	0.0061
H	-1.3920	-1.9785	0.0037
H	1.1214	-2.1436	0.0015
X	-2.3127	0.1522	0.0073
X	2.3130	-0.1519	-0.0029
0	1	D
0	5	S
0	6	S
1	2	S
1	7	S
2	3	S
3	4	S
3	8	S
4	5	S
4	9	S
2	10	S
5	11	S
