21
19	20
C	1.2013	0.0305	0.1424
O	2.5459	0.0142	-0.0694
C	3.1078	1.0521	-0.7811
C	2.6407	2.3670	-0.7227
C	3.2796	3.3997	-1.4322
C	2.7278	4.8143	-1.3581
O	3.3341	5.7358	-1.9920
O	1.6754	4.9903	-0.6568
C	4.4277	3.0738	-2.1875
C	4.9323	1.7547	-2.2441
C	6.1792	1.4005	-3.0405
O	6.5418	0.1759	-3.0360
O	6.7860	2.3308	-3.6592
C	4.2488	0.7546	-1.5271
H	0.8716	-0.6775	0.8803
H	0.5848	0.5944	-0.5358
H	1.7789	2.6228	-0.1122
H	4.9439	3.8634	-2.7353
H	4.6255	-0.2653	-1.5561
X	2.2922	5.9309	-1.2996
X	7.1627	1.1211	-3.6687
0	1	S
0	14	S
0	15	S
1	2	S
2	3	D
2	13	S
3	4	S
3	16	S
4	5	S
4	8	D
5	6	S
5	7	S
8	9	S
8	17	S
9	10	S
9	13	D
10	11	S
10	12	S
13	18	S
19	6	S
20	11	S
