26
24	25
C	0.9496	-0.0006	0.2828
C	2.4122	0.2334	0.0694
C	2.8561	1.4825	-0.5764
C	2.1419	2.6682	-0.3760
C	2.5753	3.8983	-0.8975
C	3.7592	3.9105	-1.6651
C	4.4963	2.7301	-1.9101
C	4.0231	1.5249	-1.3517
C	5.7746	2.7352	-2.7361
O	6.3624	1.6148	-2.9067
O	6.1868	3.8418	-3.2027
C	1.7776	5.1573	-0.5973
O	2.1885	6.2624	-1.0713
O	0.7314	5.0243	0.1252
C	3.3682	-0.4015	1.0303
H	0.3676	0.2868	-0.5993
H	0.5871	0.5698	1.1443
H	0.7506	-1.0599	0.4724
H	1.2408	2.6713	0.2340
H	4.1165	4.8561	-2.0735
H	4.5899	0.6153	-1.5399
H	3.0065	-1.3841	1.3488
H	3.4685	0.2255	1.9234
H	4.3606	-0.5429	0.5933
X	6.7014	2.9962	-3.4523
X	1.3485	6.2780	-0.5981
0	1	S
0	15	S
0	16	S
0	17	S
1	2	S
1	14	S
2	3	D
2	7	S
3	4	S
3	18	S
4	5	D
4	11	S
5	6	S
5	19	S
6	7	D
6	8	S
7	20	S
8	9	S
8	10	S
11	12	S
11	13	S
14	21	S
14	22	S
14	23	S
24	9	S
25	12	S
