31
29	30
O	1.2364	0.8122	-0.2417
C	2.2377	0.0372	-0.1139
O	2.6468	-0.7893	-0.9924
C	3.0210	0.1176	1.1849
C	2.6466	1.0083	2.2037
C	3.3704	1.0849	3.4006
C	4.4943	0.2752	3.6088
C	4.8672	-0.6233	2.5998
C	4.1412	-0.6972	1.4058
C	5.2891	0.3643	4.8903
C	4.8349	-0.5665	5.9899
C	5.3382	-1.8713	6.0771
C	4.9189	-2.7318	7.0986
C	3.9863	-2.3155	8.0611
C	3.4839	-1.0084	7.9655
C	3.8983	-0.1458	6.9438
C	3.5330	-3.2507	9.1683
O	2.6970	-2.7941	10.0132
O	4.0323	-4.4217	9.1852
H	1.7737	1.6419	2.0560
H	3.0438	1.7823	4.1669
H	5.7251	-1.2759	2.7329
H	4.4403	-1.4042	0.6314
H	5.2722	1.3994	5.2574
H	6.3493	0.1746	4.6726
H	6.0575	-2.2342	5.3481
H	5.3142	-3.7447	7.1497
H	2.7537	-0.6690	8.6986
H	3.4792	0.8554	6.8999
X	1.8370	0.2141	-1.2311
X	3.4333	-3.8385	10.2097
0	1	S
1	2	S
1	3	S
3	4	D
3	8	S
4	5	S
4	19	S
5	6	D
5	20	S
6	7	S
6	9	S
7	8	D
7	21	S
8	22	S
9	10	S
9	23	S
9	24	S
10	11	D
10	15	S
11	12	S
11	25	S
12	13	D
12	26	S
13	14	S
13	16	S
14	15	D
14	27	S
15	28	S
16	17	S
16	18	S
29	0	S
30	17	S
