25
23	24
C	2.4233	1.0654	0.1484
C	2.4396	-0.1914	1.0091
C	0.9509	-0.4350	1.3928
O	0.2351	-1.1014	0.5915
O	0.5945	0.1250	2.4796
O	2.9846	-1.2950	0.2568
C	4.3393	-1.5043	0.2933
C	5.2754	-0.7329	0.9804
C	6.6334	-1.0855	0.9744
C	7.0906	-2.2083	0.2696
C	6.1474	-2.9593	-0.4466
C	4.7890	-2.6103	-0.4332
C	8.5587	-2.5974	0.2952
O	8.9056	-3.6202	-0.3786
O	9.3449	-1.8756	0.9897
H	2.0355	1.9253	0.7042
H	1.7991	0.9257	-0.7421
H	3.4270	1.3128	-0.2114
H	2.9798	-0.0420	1.9501
H	4.9927	0.1487	1.5412
H	7.3465	-0.4838	1.5334
H	6.4775	-3.8304	-1.0093
H	4.0740	-3.2126	-0.9865
X	-0.1959	-0.2353	1.6842
X	9.6789	-3.0245	0.2421
0	1	S
0	15	S
0	16	S
0	17	S
1	2	S
1	5	S
1	18	S
2	3	S
2	4	S
5	6	S
6	7	D
6	11	S
7	8	S
7	19	S
8	9	D
8	20	S
9	10	S
9	12	S
10	11	D
10	21	S
11	22	S
12	13	S
12	14	S
23	3	S
24	13	S
