19
17	18
C	1.1945	-0.0323	0.0368
C	2.3900	-0.0164	0.0373
C	3.8430	0.0039	0.0384
C	4.5817	-1.1918	0.0380
C	5.9983	-1.1878	0.0433
C	6.7963	-2.4835	0.0480
O	8.0664	-2.4069	0.0537
O	6.1333	-3.5723	0.0464
C	6.6637	0.0530	0.0445
C	5.9611	1.2682	0.0407
C	6.7094	2.5940	0.0363
O	5.9988	3.6520	0.0317
O	7.9822	2.5744	0.0368
C	4.5467	1.2215	0.0400
H	4.0744	-2.1559	0.0343
H	7.7559	0.0798	0.0484
H	4.0157	2.1717	0.0404
X	7.4256	-3.5053	0.0517
X	7.2992	3.6390	0.0328
0	1	A
1	2	S
2	3	D
2	13	S
3	4	S
3	14	S
4	5	S
4	8	D
5	6	S
5	7	S
8	9	S
8	15	S
9	10	S
9	13	D
10	11	S
10	12	S
13	16	S
17	6	S
18	11	S
