29
27	28
O	2.7551	-0.8298	-0.8155
C	2.3439	0.0281	0.0303
O	1.3479	-0.1242	0.8090
C	3.1033	1.3410	0.1189
C	2.7040	2.3434	1.0370
C	3.3915	3.5601	1.1519
C	4.4855	3.7784	0.3337
C	4.8863	2.7948	-0.5946
C	4.2160	1.5844	-0.7070
C	6.0895	3.2750	-1.3808
C	6.3451	4.6358	-0.7663
C	7.3505	5.5420	-1.0761
C	7.4128	6.7594	-0.3741
C	8.5004	7.7760	-0.6787
O	8.4964	8.8557	-0.0036
O	9.3412	7.4793	-1.5871
C	6.4436	7.0201	0.6255
C	5.4294	6.1014	0.9328
C	5.3866	4.9088	0.2324
H	1.8385	2.1543	1.6709
H	3.0654	4.3036	1.8687
H	4.5381	0.8272	-1.4170
H	5.8398	3.3740	-2.4415
H	6.9449	2.6116	-1.2286
H	8.0861	5.3232	-1.8456
H	6.4957	7.9624	1.1693
H	4.7054	6.3285	1.7047
X	1.7441	-1.0089	-0.0397
X	9.3593	8.5788	-0.9192
0	1	S
1	2	S
1	3	S
3	4	D
3	8	S
4	5	S
4	19	S
5	6	D
5	20	S
6	7	S
6	18	S
7	8	D
7	9	S
8	21	S
9	10	S
9	22	S
9	23	S
10	11	S
10	18	D
11	12	D
11	24	S
12	13	S
12	16	S
13	14	S
13	15	S
16	17	D
16	25	S
17	18	S
17	26	S
27	0	S
28	14	S
