14
12	13
C	-1.2145	0.3860	0.0023
C	-0.2159	1.3589	0.0009
C	1.1102	0.9151	-0.0012
C	1.4189	-0.4706	-0.0021
C	0.4078	-1.4357	-0.0005
C	-0.9096	-0.9806	0.0018
N	2.7702	-0.5794	-0.0042
C	3.2758	0.6698	-0.0034
N	2.2884	1.5869	-0.0021
H	-0.4236	2.4177	0.0015
H	0.6724	-2.4816	-0.0006
H	4.3326	0.9033	-0.0034
X	3.5852	-0.9612	-0.0058
X	2.8643	2.2786	-0.0027
0	1	D
0	5	S
1	2	S
1	9	S
2	3	D
2	8	S
3	4	S
3	6	S
4	5	D
4	10	S
6	7	S
7	8	S
7	11	S
6	12	S
8	13	S
