21
19	20
O	3.1002	-0.4036	1.0688
C	2.5062	0.0438	0.0330
O	1.2892	-0.2246	-0.2509
C	3.2354	0.9182	-0.9117
C	4.7504	0.7960	-1.1091
C	3.7940	0.3034	-2.1959
C	3.7263	-1.1871	-2.4125
C	3.6194	1.1018	-3.4633
C	5.5955	1.9752	-1.3954
O	5.2616	3.1186	-0.9398
O	6.6404	1.7785	-2.1047
H	2.8493	1.9315	-0.9775
H	5.2264	0.0405	-0.4904
H	3.8947	-1.7559	-1.4924
H	4.4913	-1.4970	-3.1325
H	2.7469	-1.4705	-2.8119
H	3.6206	2.1821	-3.2853
H	2.6652	0.8504	-3.9386
H	4.4235	0.8741	-4.1708
X	1.8023	-0.1891	0.9765
X	6.4937	2.7443	-1.1914
0	1	S
1	2	S
1	3	S
3	4	S
3	5	S
3	11	S
4	5	S
4	8	S
4	12	S
5	6	S
5	7	S
6	13	S
6	14	S
6	15	S
7	16	S
7	17	S
7	18	S
8	9	S
8	10	S
19	0	S
20	9	S
