28
26	27
C	2.4507	-0.0851	-0.0057
C	0.9525	-0.0512	-0.0033
C	0.2090	-1.2307	-0.0172
C	-1.1942	-1.1839	-0.0047
C	-2.0148	-2.4192	-0.0128
C	-3.2655	-2.4673	-0.6419
C	-3.9975	-3.6447	-0.6183
N	-3.5782	-4.7796	-0.0258
C	-2.3720	-4.7455	0.5797
C	-1.8929	-6.0073	1.2336
C	-1.5776	-3.5995	0.6095
C	-1.7809	0.0886	0.0155
C	-0.9713	1.2136	0.0182
N	0.3753	1.1718	0.0105
H	2.8336	-1.1104	-0.0042
H	2.8347	0.4222	0.8848
H	2.8325	0.4211	-0.8973
H	0.7330	-2.1810	-0.0478
H	-3.6773	-1.6086	-1.1611
H	-4.9721	-3.7045	-1.0949
H	-2.6367	-6.8044	1.1341
H	-1.7157	-5.8374	2.3001
H	-0.9644	-6.3468	0.7635
H	-0.6258	-3.6378	1.1308
H	-2.8569	0.2209	0.0421
H	-1.4025	2.2108	0.0261
X	-4.0807	-5.5262	-0.0341
X	0.8665	1.9259	0.0144
0	1	S
0	14	S
0	15	S
0	16	S
1	2	D
1	13	S
2	3	S
2	17	S
3	4	S
3	11	D
4	5	D
4	10	S
5	6	S
5	18	S
6	7	S
6	19	S
7	8	S
8	9	S
8	10	D
9	20	S
9	21	S
9	22	S
10	23	S
11	12	S
11	24	S
12	13	S
12	25	S
7	26	S
13	27	S
