22
20	21
N	1.1630	0.1725	0.1186
C	2.3217	0.1392	0.0382
C	3.7525	0.1004	-0.0765
C	4.4542	1.3144	-0.1403
C	5.8476	1.3390	-0.3163
C	6.5523	2.6601	-0.4763
C	6.5448	0.1205	-0.3880
C	5.8459	-1.0933	-0.2975
C	4.4482	-1.1182	-0.1623
C	3.7272	-2.4400	-0.1692
C	7.9636	0.0824	-0.5941
N	9.1126	0.0511	-0.7750
H	3.9023	2.2534	-0.0790
H	5.8614	3.5009	-0.3548
H	6.9848	2.7318	-1.4803
H	7.3428	2.7715	0.2719
H	6.3981	-2.0323	-0.3604
H	4.4290	-3.2797	-0.1996
H	3.0902	-2.5110	-1.0576
H	3.1147	-2.5541	0.7308
X	0.2678	0.1865	0.2101
X	10.0058	0.0378	-0.8845
0	1	D
1	2	S
2	3	D
2	8	S
3	4	S
3	12	S
4	5	S
4	6	D
5	13	S
5	14	S
5	15	S
6	7	S
6	10	S
7	8	D
7	16	S
8	9	S
9	17	S
9	18	S
9	19	S
10	11	D
0	20	S
11	21	S
