21
19	20
O	3.1609	1.1634	0.1098
C	2.6317	0.0096	0.1042
O	1.6494	-0.3519	-0.6214
C	3.1953	-1.0265	1.0248
S	4.5165	-0.7462	2.1203
C	4.3681	-2.3433	2.6468
C	3.3979	-3.0890	2.0359
C	2.6907	-2.3229	1.0761
S	3.4861	-4.6551	2.7546
C	4.7591	-4.2929	3.8613
C	5.0934	-2.9869	3.6308
S	6.3256	-2.3559	4.5971
C	6.4323	-3.8958	5.3981
C	5.5486	-4.8489	4.8988
C	7.3708	-4.1979	6.5236
O	7.3255	-5.3795	6.9952
O	8.1365	-3.2682	6.9270
H	1.8677	-2.6698	0.4642
H	5.4829	-5.8609	5.2774
X	2.1160	0.7438	-0.6926
X	8.0954	-4.5649	7.4069
0	1	S
1	2	S
1	3	S
3	4	S
3	7	D
4	5	S
5	6	D
5	10	S
6	7	S
6	8	S
7	17	S
8	9	S
9	10	D
9	13	S
10	11	S
11	12	S
12	13	D
12	14	S
13	18	S
14	15	S
14	16	S
19	0	S
20	15	S
