26
24	25
N	-1.2498	-0.0687	0.0679
C	-0.6050	1.1168	0.0366
C	0.7746	1.2437	-0.0289
C	1.5458	0.0837	-0.0539
C	0.9067	-1.1537	-0.0060
C	-0.4796	-1.1772	0.0444
C	2.9805	0.1656	-0.1517
C	4.1767	0.2352	-0.2553
C	5.7152	0.3341	-0.4283
C	6.9055	0.4089	-0.5879
C	8.3239	0.4939	-0.8127
C	8.9528	1.7340	-0.9124
C	10.3167	1.7636	-1.1669
N	11.0786	0.6581	-1.3082
C	10.4484	-0.5299	-1.1934
C	9.0885	-0.6630	-0.9532
H	-1.2501	1.9913	0.0638
H	1.2263	2.2289	-0.0628
H	1.4631	-2.0841	-0.0138
H	-1.0266	-2.1163	0.0639
H	8.4033	2.6618	-0.8023
H	10.8494	2.7048	-1.2709
H	11.0874	-1.4016	-1.3060
H	8.6458	-1.6498	-0.8825
X	-2.1446	-0.1208	0.1497
X	11.9693	0.7113	-1.4257
0	1	S
0	5	S
1	2	S
1	16	S
2	3	D
2	17	S
3	4	S
3	6	S
4	5	D
4	18	S
5	19	S
6	7	A
7	8	S
8	9	A
9	10	S
10	11	D
10	15	S
11	12	S
11	20	S
12	13	S
12	21	S
13	14	S
14	15	D
14	22	S
15	23	S
0	24	S
13	25	S
