31
29	30
C	-0.7158	-0.0113	-1.0719
C	0.6681	0.0207	-1.1649
C	1.4193	0.0275	0.0131
C	2.9261	0.0944	-0.0263
C	3.4189	1.5434	-0.0210
C	4.9473	1.6304	-0.0328
C	5.4130	3.0652	-0.0010
C	5.6095	3.7243	1.2153
C	6.0035	5.0540	1.1983
N	6.2087	5.7625	0.0680
C	6.0085	5.1105	-1.0969
C	5.6150	3.7825	-1.1827
C	0.7384	0.0118	1.2342
C	-0.6485	-0.0191	1.2227
N	-1.3917	-0.0328	0.0965
H	-1.3365	-0.0175	-1.9633
H	1.1430	0.0441	-2.1398
H	3.2928	-0.4305	-0.9174
H	3.3349	-0.4490	0.8351
H	3.0285	2.0612	0.8651
H	3.0125	2.0747	-0.8916
H	5.3518	1.1331	-0.9234
H	5.3653	1.0950	0.8294
H	5.4553	3.2194	2.1631
H	6.1638	5.6015	2.1225
H	6.1740	5.7034	-1.9917
H	5.4658	3.3259	-2.1553
H	1.2707	0.0286	2.1780
H	-1.2141	-0.0307	2.1499
X	6.4656	6.6248	0.0899
X	-2.2910	-0.0551	0.1232
0	1	D
0	14	S
0	15	S
1	2	S
1	16	S
2	3	S
2	12	D
3	4	S
3	17	S
3	18	S
4	5	S
4	19	S
4	20	S
5	6	S
5	21	S
5	22	S
6	7	D
6	11	S
7	8	S
7	23	S
8	9	S
8	24	S
9	10	S
10	11	D
10	25	S
11	26	S
12	13	S
12	27	S
13	14	S
13	28	S
9	29	S
14	30	S
