18
16	17
S	1.0366	0.0665	-0.0358
C	2.7706	0.0916	-0.0335
C	3.4936	-1.1109	-0.0319
C	4.9068	-1.1170	-0.0282
C	5.5703	0.1331	-0.0282
C	4.8702	1.3630	-0.0317
C	3.4579	1.3149	-0.0332
C	5.6157	2.6937	-0.0342
O	4.9349	3.7768	-0.0363
O	6.8945	2.6751	-0.0344
C	5.6923	-2.4246	-0.0242
O	6.9702	-2.3662	-0.0186
O	5.0448	-3.5285	-0.0262
H	2.9695	-2.0640	-0.0334
H	6.6596	0.1493	-0.0259
H	2.9060	2.2522	-0.0344
X	6.0515	3.8118	-0.0357
X	6.1614	-3.5291	-0.0214
0	1	S
1	2	D
1	6	S
2	3	S
2	13	S
3	4	D
3	10	S
4	5	S
4	14	S
5	6	D
5	7	S
6	15	S
7	8	S
7	9	S
10	11	S
10	12	S
16	8	S
17	11	S
