10
8	9
C	1.0253	-0.0289	-0.0733
C	2.5165	-0.0819	-0.0735
N	3.3210	0.9996	-0.0766
C	4.5879	0.5332	-0.0720
C	4.5382	-0.8443	-0.0670
N	3.2412	-1.2185	-0.0683
H	5.4620	1.1675	-0.0721
H	5.3640	-1.5403	-0.0623
X	3.0634	1.8619	-0.0809
X	2.9224	-2.0601	-0.0661
0	1	S
1	2	S
1	5	S
2	3	S
3	4	D
3	6	S
4	5	S
4	7	S
2	8	S
5	9	S
