18
16	17
O	1.8646	0.6393	-1.1530
C	2.2678	-0.0700	-0.1613
O	1.9033	-1.3071	-0.0391
C	3.0453	0.5626	1.0147
C	2.5663	0.2412	2.3267
C	3.1281	0.7213	3.5478
S	2.4087	0.0782	5.0127
C	4.2279	1.6020	3.4904
C	4.9803	2.2779	4.6547
O	6.2698	2.3218	4.5917
O	4.3483	2.8964	5.5884
C	4.7282	1.8936	2.1750
C	4.1832	1.3943	0.9559
S	5.0590	1.8220	-0.5034
H	1.7150	-0.4383	2.3778
H	5.6086	2.5375	2.1194
X	1.6640	-0.5613	-1.0746
X	5.5657	2.8038	5.5606
0	1	S
1	2	S
1	3	S
3	4	D
3	12	S
4	5	S
4	14	S
5	6	S
5	7	D
7	8	S
7	11	S
8	9	S
8	10	S
11	12	D
11	15	S
12	13	S
16	0	S
17	9	S
