18
16	17
N	0.9564	0.0884	0.1932
C	2.3696	-0.0171	-0.0048
C	3.0860	1.1932	-0.0888
C	4.4807	1.2184	-0.2518
C	5.2346	2.5291	-0.3680
O	6.4993	2.4703	-0.5157
O	4.5564	3.6057	-0.3110
C	5.1467	-0.0117	-0.3068
C	4.4385	-1.2186	-0.2246
C	3.0332	-1.2513	-0.0873
C	2.3357	-2.5983	-0.0447
O	3.0524	-3.6097	0.2644
O	1.1006	-2.6674	-0.3446
H	2.5527	2.1407	-0.0272
H	6.2288	-0.0287	-0.4207
H	4.9860	-2.1583	-0.2754
X	5.8312	3.5662	-0.4599
X	1.7841	-3.6635	-0.0110
0	1	S
1	2	D
1	9	S
2	3	S
2	13	S
3	4	S
3	7	D
4	5	S
4	6	S
7	8	S
7	14	S
8	9	D
8	15	S
9	10	S
10	11	S
10	12	S
16	5	S
17	11	S
