31
29	30
O	2.2842	0.4033	-0.8651
C	2.1673	0.1012	0.3651
O	1.3751	0.6553	1.1921
C	3.0601	-1.0082	0.8960
C	3.9767	-1.6650	0.0553
C	4.8171	-2.6688	0.5479
C	4.7361	-3.0332	1.8942
C	3.8359	-2.3952	2.7491
C	3.0019	-1.3926	2.2468
S	5.8689	-4.2358	2.5531
O	7.0841	-4.1689	1.7549
O	5.9568	-4.0146	3.9884
C	5.1550	-5.8447	2.3077
C	5.4720	-6.5708	1.1576
C	4.9502	-7.8563	0.9897
C	4.1214	-8.4368	1.9664
C	3.8332	-7.6923	3.1243
C	4.3489	-6.4046	3.3017
C	3.5609	-9.8363	1.7785
O	2.8296	-10.2996	2.7106
O	3.8701	-10.4469	0.7061
H	4.0347	-1.3717	-0.9925
H	5.5311	-3.1412	-0.1212
H	3.7805	-2.6536	3.8032
H	2.3000	-0.8868	2.9095
H	6.1239	-6.1573	0.3932
H	5.1896	-8.4276	0.0936
H	3.2018	-8.1365	3.8931
H	4.1213	-5.8610	4.2143
X	1.7149	1.1698	0.0593
X	3.4249	-11.0285	1.7939
0	1	S
1	2	S
1	3	S
3	4	D
3	8	S
4	5	S
4	21	S
5	6	D
5	22	S
6	7	S
6	9	S
7	8	D
7	23	S
8	24	S
9	10	D
9	11	D
9	12	S
12	13	D
12	17	S
13	14	S
13	25	S
14	15	D
14	26	S
15	16	S
15	18	S
16	17	D
16	27	S
17	28	S
18	19	S
18	20	S
29	0	S
30	19	S
