13
11	12
C	1.0903	-0.1120	-0.0500
C	2.2831	-0.0962	-0.0491
C	3.7080	-0.0738	-0.0475
C	4.4655	-1.2254	-0.0476
N	5.8173	-1.2330	-0.0450
C	6.4097	-0.0280	-0.0423
N	5.7769	1.1563	-0.0426
C	4.4264	1.1025	-0.0453
H	4.0064	-2.2110	-0.0496
H	7.4945	-0.0093	-0.0393
H	3.9336	2.0717	-0.0454
X	6.4912	-1.8295	-0.0446
X	6.4306	1.7750	-0.0410
0	1	A
1	2	S
2	3	D
2	7	S
3	4	S
3	8	S
4	5	S
5	6	S
5	9	S
6	7	S
7	10	S
4	11	S
6	12	S
