11
9	10
O	1.5985	0.6034	-0.9440
C	2.1794	-0.0533	-0.0227
O	1.6136	-0.6472	0.9491
C	3.7030	-0.0511	-0.0342
O	5.0199	0.1325	0.0673
C	5.7485	-0.8147	-0.5246
C	6.7828	-1.7637	-1.1199
O	7.9988	-1.4509	-0.9129
O	6.3641	-2.7751	-1.7668
X	0.9794	-0.0550	-0.0136
X	7.5968	-2.5106	-1.5884
0	1	S
1	2	S
1	3	S
3	4	S
4	5	S
5	6	S
6	7	S
6	8	S
9	0	S
10	7	S
