10
8	9
N	-0.0078	1.1590	0.0005
C	1.0596	0.3469	0.0018
C	0.7159	-0.9776	0.0009
C	-0.6504	-0.9011	-0.0019
N	-1.0981	0.3633	-0.0015
H	2.0633	0.7499	0.0033
H	1.3489	-1.8444	0.0016
H	-1.3407	-1.7336	-0.0042
X	-0.1654	2.0451	0.0008
X	-1.8939	0.7836	-0.0024
0	1	S
0	4	S
1	2	D
1	5	S
2	3	S
2	6	S
3	4	S
3	7	S
0	8	S
4	9	S
