32
30	31
O	1.9131	-0.3044	1.2136
C	2.3773	0.1583	0.1302
O	2.2208	1.3155	-0.3664
C	3.1449	-0.8442	-0.7575
O	4.5512	-0.8184	-0.4416
C	5.3399	-1.7402	-1.0990
C	5.0562	-2.1946	-2.3883
C	5.9051	-3.1049	-3.0138
C	7.0459	-3.5701	-2.3548
C	7.3859	-3.1202	-1.0592
C	6.5177	-2.1761	-0.4362
C	6.8530	-1.6996	0.8443
C	8.0170	-2.0988	1.4917
C	8.8627	-3.0160	0.8839
C	8.5435	-3.5694	-0.3635
O	9.3213	-4.5535	-0.9531
C	10.2170	-5.2446	-0.0474
C	10.8119	-6.5468	-0.6119
O	10.6056	-6.8250	-1.8229
O	11.4838	-7.2121	0.2425
H	2.9804	-0.5446	-1.7977
H	2.7426	-1.8518	-0.5942
H	4.1915	-1.8354	-2.9343
H	5.6811	-3.4470	-4.0191
H	7.6931	-4.2846	-2.8634
H	6.1925	-0.9952	1.3496
H	8.2572	-1.7039	2.4733
H	9.7681	-3.2929	1.4132
H	9.6786	-5.5213	0.8683
H	11.0637	-4.5872	0.1846
X	1.3913	0.8248	0.2838
X	11.6919	-7.3625	-0.6231
0	1	S
1	2	S
1	3	S
3	4	S
3	20	S
3	21	S
4	5	S
5	6	D
5	10	S
6	7	S
6	22	S
7	8	D
7	23	S
8	9	S
8	24	S
9	10	D
9	14	S
10	11	S
11	12	D
11	25	S
12	13	S
12	26	S
13	14	D
13	27	S
14	15	S
15	16	S
16	17	S
16	28	S
16	29	S
17	18	S
17	19	S
30	0	S
31	18	S
