36
34	35
C	3.9915	1.1189	1.0650
S	2.7056	0.3423	0.0440
C	3.6130	0.1956	-1.4055
C	4.6990	-0.5742	-1.6455
C	5.4389	-1.6021	-0.7832
O	4.7383	-2.2199	0.0741
O	6.6729	-1.7555	-1.0134
C	5.3588	-0.0936	-2.8741
S	5.4862	-1.1676	-4.2748
C	4.4593	-2.5832	-3.7987
C	4.8877	1.1592	-3.1232
C	5.4672	2.4285	-2.6190
S	7.1514	2.6715	-2.3981
C	7.2869	2.2792	-0.6312
C	4.4385	3.2096	-2.2171
C	4.3450	4.5295	-1.4275
O	5.3867	5.2463	-1.3969
O	3.2346	4.7629	-0.8562
C	3.1669	2.4707	-2.4164
S	2.1723	3.1133	-3.7478
C	0.6531	3.4451	-2.8420
C	3.5064	1.1618	-2.5227
H	3.5434	1.5471	1.9652
H	4.4972	1.9258	0.5278
H	4.7401	0.3818	1.3735
H	4.3617	-3.2567	-4.6557
H	3.4500	-2.2754	-3.5073
H	4.9230	-3.1502	-2.9883
H	8.3251	2.4064	-0.3109
H	6.9984	1.2429	-0.4342
H	6.6646	2.9439	-0.0253
H	-0.0856	3.8502	-3.5408
H	0.8128	4.1785	-2.0495
H	0.2505	2.5218	-2.4183
X	6.0184	-2.4071	-0.1079
X	4.2722	5.5574	-0.8126
0	1	S
0	22	S
0	23	S
0	24	S
1	2	S
2	3	D
2	21	S
3	4	S
3	7	S
4	5	S
4	6	S
7	8	S
7	10	D
8	9	S
9	25	S
9	26	S
9	27	S
10	11	S
10	21	S
11	12	S
11	14	D
12	13	S
13	28	S
13	29	S
13	30	S
14	15	S
14	18	S
15	16	S
15	17	S
18	19	S
18	21	D
19	20	S
20	31	S
20	32	S
20	33	S
34	5	S
35	16	S
