19
17	18
C	1.0510	0.0301	0.0740
C	2.5724	0.0120	0.0848
C	3.1454	1.3777	-0.2914
C	4.6248	1.4043	-0.2630
N	5.4316	0.6625	-1.0557
C	6.6994	1.0156	-0.7564
C	6.6561	1.9896	0.2157
N	5.3616	2.2247	0.5186
H	0.6570	-0.9559	0.3401
H	0.6691	0.2916	-0.9182
H	0.6621	0.7567	0.7945
H	2.9234	-0.7554	-0.6159
H	2.9228	-0.2840	1.0813
H	2.7619	2.1391	0.3996
H	2.8145	1.6634	-1.2977
H	7.5697	0.5834	-1.2256
H	7.4828	2.5022	0.6824
X	6.2144	0.5687	-1.4899
X	6.0156	2.7828	0.7848
0	1	S
0	8	S
0	9	S
0	10	S
1	2	S
1	11	S
1	12	S
2	3	S
2	13	S
2	14	S
3	4	S
3	7	S
4	5	S
5	6	D
5	15	S
6	7	S
6	16	S
4	17	S
7	18	S
