32
30	31
F	1.5797	-1.3290	0.0750
C	0.3910	-0.7033	0.0318
C	0.3979	0.6942	0.0209
F	1.5927	1.3091	-0.0063
C	-0.7872	1.4469	0.0288
C	-1.9848	0.7099	0.0204
C	-1.9920	-0.6958	0.0002
C	-0.8007	-1.4432	0.0186
C	-0.8200	-2.9269	0.0305
C	0.1889	-3.6866	-0.5798
C	0.1375	-5.0722	-0.5245
N	-0.8519	-5.7626	0.0738
C	-1.8248	-5.0330	0.6510
C	-1.8490	-3.6449	0.6601
C	-0.7915	2.9297	0.0550
C	-1.8066	3.6762	-0.5624
C	-1.7752	5.0630	-0.4997
N	-0.8073	5.7648	0.1193
C	0.1704	5.0468	0.7038
C	0.2139	3.6600	0.7062
H	-2.9471	1.2178	0.0423
H	-2.9589	-1.1943	-0.0321
H	1.0208	-3.2212	-1.0990
H	0.9196	-5.6762	-0.9757
H	-2.6128	-5.6082	1.1288
H	-2.6649	-3.1463	1.1728
H	-2.6188	3.2019	-1.1030
H	-2.5542	5.6607	-0.9644
H	0.9481	5.6287	1.1906
H	1.0352	3.1706	1.2205
X	-0.8608	-6.6626	0.0770
X	-0.8092	6.6647	0.1296
0	1	S
1	2	D
1	7	S
2	3	S
2	4	S
4	5	D
4	14	S
5	6	S
5	20	S
6	7	D
6	21	S
7	8	S
8	9	D
8	13	S
9	10	S
9	22	S
10	11	S
10	23	S
11	12	S
12	13	D
12	24	S
13	25	S
14	15	D
14	19	S
15	16	S
15	26	S
16	17	S
16	27	S
17	18	S
18	19	D
18	28	S
19	29	S
11	30	S
17	31	S
