21
19	20
O	2.9782	-1.1679	0.0950
C	2.4832	-0.0035	-0.0213
O	1.3865	0.3912	0.4908
C	3.2445	1.0039	-0.8248
C	2.7860	2.3066	-0.9981
C	3.7065	3.0534	-1.7743
S	3.9939	4.6196	-2.4372
C	5.4844	4.2342	-3.2151
C	6.5187	4.7855	-4.0109
C	7.4653	3.8121	-4.3175
C	8.6563	4.1056	-5.1752
O	9.4639	3.1571	-5.4184
O	8.7629	5.3021	-5.6008
S	7.1212	2.2578	-3.6147
C	5.7165	2.9137	-2.9448
C	4.7694	2.2835	-2.1603
S	4.7574	0.6832	-1.6218
H	1.8577	2.6752	-0.5807
H	6.5803	5.8097	-4.3559
X	1.8728	-0.8112	0.6229
X	9.6112	4.3409	-5.8628
0	1	S
1	2	S
1	3	S
3	4	D
3	16	S
4	5	S
4	17	S
5	6	S
5	15	D
6	7	S
7	8	S
7	14	D
8	9	D
8	18	S
9	10	S
9	13	S
10	11	S
10	12	S
13	14	S
14	15	S
15	16	S
19	0	S
20	11	S
