15
13	14
O	2.6101	1.1793	-0.3497
C	2.1789	0.0541	0.0524
O	1.1173	-0.5220	-0.3449
C	2.9957	-0.6621	1.0894
C	2.6202	-1.9086	1.6035
C	3.4136	-2.5361	2.5585
C	4.5655	-1.8908	2.9768
N	4.9696	-0.6887	2.5156
C	4.1709	-0.1053	1.5800
H	1.7055	-2.3782	1.2472
H	3.1368	-3.5022	2.9609
H	5.2162	-2.3399	3.7197
H	4.5140	0.8619	1.2181
X	5.7248	-0.3002	2.8135
X	1.5263	0.6264	-0.7762
0	1	S
1	2	S
1	3	S
3	4	D
3	8	S
4	5	S
4	9	S
5	6	D
5	10	S
6	7	S
6	11	S
7	8	S
8	12	S
7	13	S
14	0	S
