34
32	33
O	1.7177	0.0011	1.0797
C	2.3189	-0.1343	-0.0328
O	2.3816	-1.2065	-0.7149
C	3.0204	1.0863	-0.5970
C	3.0088	2.3039	0.0945
C	3.6459	3.4349	-0.4274
C	4.3140	3.3965	-1.6640
C	4.3313	2.1713	-2.3504
C	3.6976	1.0363	-1.8243
C	4.9560	4.6039	-2.2091
C	5.4998	5.5699	-1.3579
C	6.0660	6.7403	-1.8563
C	6.1096	7.0033	-3.2286
C	5.5704	6.0367	-4.0833
C	5.0106	4.8570	-3.5838
C	6.7163	8.2451	-3.7356
C	7.7816	8.8568	-3.0508
C	8.3663	10.0399	-3.5154
C	7.9067	10.6627	-4.6832
C	6.8421	10.0601	-5.3696
C	6.2588	8.8717	-4.9065
C	8.5417	11.9456	-5.1826
O	8.0676	12.4521	-6.2496
O	9.5026	12.4240	-4.5003
H	2.4892	2.3682	1.0492
H	3.5933	4.3565	0.1467
H	4.8459	2.0748	-3.3031
H	3.7244	0.0966	-2.3742
H	8.1844	8.4142	-2.1431
H	9.1928	10.4866	-2.9650
H	6.4657	10.5310	-6.2764
H	5.4287	8.4554	-5.4721
X	1.7958	-1.1229	0.4020
X	9.0462	12.9519	-5.5983
0	1	S
1	2	S
1	3	S
3	4	D
3	8	S
4	5	S
4	24	S
5	6	D
5	25	S
6	7	S
6	9	S
7	8	D
7	26	S
8	27	S
9	10	D
9	14	S
10	11	S
11	12	D
12	13	S
12	15	S
13	14	D
15	16	D
15	20	S
16	17	S
16	28	S
17	18	D
17	29	S
18	19	S
18	21	S
19	20	D
19	30	S
20	31	S
21	22	S
21	23	S
32	0	S
33	22	S
