27
25	26
O	1.2535	-0.3674	0.0463
C	2.3948	0.1101	-0.2566
O	2.9018	0.0928	-1.4285
C	3.2047	0.7719	0.8464
C	2.7314	0.8356	2.1678
C	3.4819	1.4542	3.1792
C	4.7327	2.0236	2.9017
C	5.2107	1.9616	1.5859
C	4.4601	1.3419	0.5774
C	5.5233	2.7406	3.9791
N	5.7500	1.9372	5.1611
C	6.5433	2.6770	6.1622
P	7.1373	1.3720	7.4747
O	7.8211	0.3232	6.5962
O	8.0825	2.2018	8.3426
O	5.8604	0.9188	8.1768
H	1.7704	0.3885	2.4127
H	3.1003	1.4774	4.1988
H	6.1783	2.3875	1.3382
H	4.8550	1.2945	-0.4350
H	4.9478	3.6360	4.2524
H	6.4738	3.0956	3.5613
H	6.2991	1.0835	4.9919
H	5.9680	3.4425	6.6869
H	7.4711	3.0817	5.7426
X	6.1338	2.0968	5.9594
X	1.7543	-0.2638	-1.2000
0	1	S
1	2	S
1	3	S
3	4	D
3	8	S
4	5	S
4	16	S
5	6	D
5	17	S
6	7	S
6	9	S
7	8	D
7	18	S
8	19	S
9	10	S
9	20	S
9	21	S
10	11	S
10	22	S
11	12	S
11	23	S
11	24	S
12	13	D
12	14	S
12	15	S
10	25	S
26	0	S
