13
11	12
O	1.1167	-0.7225	0.2450
C	2.1882	-0.1098	-0.0740
O	2.5548	0.1384	-1.2673
C	3.0645	0.3411	1.0363
C	2.7742	0.1236	2.3634
C	3.7553	0.6518	3.2334
C	4.7865	1.2705	2.5648
S	4.5476	1.1898	0.8661
C	5.9341	1.9124	3.2545
O	6.8336	2.4605	2.5406
O	5.9400	1.8704	4.5288
X	1.4061	-0.5259	-0.8835
X	6.8108	2.3918	3.9190
0	1	S
1	2	S
1	3	S
3	4	D
3	7	S
4	5	S
5	6	D
6	7	S
6	8	S
8	9	S
8	10	S
11	0	S
12	9	S
