12
10	11
O	1.1713	-0.0729	0.6332
C	2.3131	-0.1088	0.0368
O	2.7537	-1.1192	-0.6118
C	3.2531	1.2010	0.2266
C	2.7101	2.1320	-0.9903
O	1.7837	2.9656	-0.6482
O	3.2433	2.0687	-2.1472
O	2.8233	1.8725	1.4741
O	4.5738	1.0631	0.3961
H	1.9389	2.1703	1.1695
X	2.0129	-1.2684	0.1093
X	2.7590	2.9663	-1.8514
0	1	S
1	2	S
1	3	S
3	4	S
3	7	S
3	8	S
4	5	S
4	6	S
7	9	S
10	0	S
11	5	S
