18
16	17
O	2.6294	0.2132	1.2823
C	2.1775	0.0606	0.0953
O	1.1115	0.6314	-0.3231
C	2.9467	-0.8431	-0.8633
C	2.5009	-1.0465	-2.1890
C	3.2089	-1.8693	-3.0772
S	2.6394	-2.0880	-4.7005
C	4.3786	-2.5124	-2.6459
C	4.8626	-2.3489	-1.3287
C	6.1295	-3.0594	-0.8614
O	6.5242	-2.8725	0.3406
O	6.7480	-3.8157	-1.6883
C	4.1309	-1.5058	-0.4580
H	1.5904	-0.5474	-2.5128
H	4.9332	-3.1531	-3.3281
H	4.4906	-1.3622	0.5600
X	1.5724	0.7715	0.8493
X	7.1259	-3.6182	-0.4939
0	1	S
1	2	S
1	3	S
3	4	D
3	12	S
4	5	S
4	13	S
5	6	S
5	7	D
7	8	S
7	14	S
8	9	S
8	12	D
9	10	S
9	11	S
12	15	S
16	0	S
17	10	S
