18
16	17
O	0.8748	0.1239	-0.4357
C	1.9033	0.3430	0.2711
O	2.2542	1.4249	0.8289
C	2.8727	-0.8044	0.4034
C	4.1963	-0.4965	-0.0937
C	4.7375	-1.2474	-1.2403
O	5.4516	-0.7198	-2.0823
C	4.3123	-2.6542	-1.2760
C	5.3811	-3.7159	-1.2257
O	5.1102	-4.7882	-1.8318
O	6.3893	-3.4696	-0.4944
C	3.0566	-3.0505	-0.6625
C	2.3792	-2.1882	0.3361
O	1.5473	-2.6544	1.1078
H	4.9216	-0.0361	0.5624
H	2.7218	-4.0758	-0.7348
X	1.1318	1.2561	0.1658
X	6.2320	-4.5611	-1.1857
0	1	S
1	2	S
1	3	S
3	4	S
3	12	S
4	5	S
4	14	S
5	6	D
5	7	S
7	8	S
7	11	S
8	9	S
8	10	S
11	12	S
11	15	S
12	13	D
16	0	S
17	9	S
