22
20	21
O	1.0861	0.3741	-0.0919
C	2.3209	0.1247	0.0328
O	3.0069	-0.0088	1.0851
C	3.0595	-0.0238	-1.2976
C	4.3747	-0.2807	-1.3934
C	5.1148	-0.4013	-2.6623
C	4.7426	0.3052	-3.8123
C	5.4861	0.1999	-4.9955
C	6.6326	-0.6062	-5.0629
C	7.4376	-0.7161	-6.3454
O	8.4682	-1.4632	-6.3269
O	7.0296	-0.0530	-7.3533
C	7.0116	-1.3003	-3.9028
C	6.2673	-1.1954	-2.7180
H	2.4405	0.0910	-2.1813
H	4.9531	-0.4147	-0.4811
H	3.8737	0.9566	-3.8009
H	5.1740	0.7557	-5.8779
H	7.9004	-1.9279	-3.9294
H	6.5949	-1.7472	-1.8414
X	1.7412	0.2413	1.0770
X	8.0739	-0.8030	-7.3591
0	1	S
1	2	S
1	3	S
3	4	D
3	14	S
4	5	S
4	15	S
5	6	D
5	13	S
6	7	S
6	16	S
7	8	D
7	17	S
8	9	S
8	12	S
9	10	S
9	11	S
12	13	D
12	18	S
13	19	S
20	0	S
21	10	S
