18
16	17
O	2.6384	0.7164	-1.2782
C	2.5245	-0.5459	-1.2737
O	1.8211	-1.2726	-2.0401
C	3.2496	-1.2886	-0.1409
C	4.7447	-1.1006	-0.1567
C	5.6432	-2.1004	-0.1671
C	7.1373	-1.9034	-0.1877
C	7.8730	-2.6196	0.9544
O	7.7731	-3.8856	0.9772
O	8.5701	-1.8755	1.7065
H	2.9909	-2.3542	-0.1739
H	2.8602	-0.8992	0.8082
H	5.0869	-0.0661	-0.1415
H	5.3032	-3.1355	-0.1827
H	7.3871	-0.8368	-0.1725
H	7.5265	-2.3042	-1.1322
X	1.4826	-0.1378	-1.7071
X	8.9169	-3.0203	1.3899
0	1	S
1	2	S
1	3	S
3	4	S
3	10	S
3	11	S
4	5	D
4	12	S
5	6	S
5	13	S
6	7	S
6	14	S
6	15	S
7	8	S
7	9	S
16	0	S
17	8	S
