21
19	20
O	1.3481	-0.0893	-0.0034
S	2.8104	-0.1574	-0.0065
O	3.4171	-0.2915	1.3174
O	3.3503	-1.0680	-1.0195
C	3.3461	1.4992	-0.5480
C	2.5457	2.6137	-0.2518
C	2.9428	3.9090	-0.6407
C	2.0913	5.1256	-0.2979
O	2.4997	6.2752	-0.6753
O	1.0099	4.9379	0.3530
C	4.1671	4.0402	-1.3406
C	4.9909	2.9306	-1.6534
C	6.3252	3.1179	-2.3674
O	7.0243	2.0767	-2.6149
O	6.6858	4.3013	-2.6788
C	4.5482	1.6514	-1.2585
H	1.6160	2.4765	0.2966
H	4.4940	5.0367	-1.6410
H	5.1515	0.7759	-1.4885
X	1.4208	6.0835	-0.0280
X	7.3752	3.2653	-2.9293
0	1	S
1	2	S
1	3	S
1	4	S
4	5	D
4	15	S
5	6	S
5	16	S
6	7	S
6	10	D
7	8	S
7	9	S
10	11	S
10	17	S
11	12	S
11	15	D
12	13	S
12	14	S
15	18	S
19	8	S
20	13	S
