21
19	20
O	1.2647	-0.4881	-0.0011
C	2.3337	0.2097	0.0164
O	2.7453	0.8989	-0.9768
C	3.1673	0.2226	1.2925
C	2.7486	-0.4735	2.4524
C	3.5053	-0.4869	3.6506
C	4.7226	0.2261	3.6675
C	5.1598	0.9189	2.5280
C	4.3892	0.9221	1.3536
S	6.7592	1.7941	2.5278
O	7.4817	1.1964	1.4047
O	6.3835	3.1970	2.3406
O	7.3517	1.5058	3.8347
C	3.0284	-1.2543	4.8784
O	3.7394	-1.1960	5.9371
O	1.9416	-1.9190	4.7920
H	1.8080	-1.0251	2.4211
H	5.3291	0.2308	4.5701
H	4.7480	1.4649	0.4818
X	1.6258	0.1692	-0.9517
X	2.5950	-1.8669	5.8148
0	1	S
1	2	S
1	3	S
3	4	D
3	8	S
4	5	S
4	16	S
5	6	D
5	13	S
6	7	S
6	17	S
7	8	D
7	9	S
8	18	S
9	10	S
9	11	S
9	12	S
13	14	S
13	15	S
19	0	S
20	14	S
