15
13	14
O	1.4864	0.7576	0.4509
C	2.4711	0.0379	0.0667
O	2.8754	-1.0136	0.6622
C	3.2123	0.4946	-1.2117
C	2.7803	1.6645	-1.8487
C	3.4267	2.1118	-2.9990
C	4.4945	1.3835	-3.5025
C	4.8724	0.2343	-2.8309
N	4.2688	-0.2214	-1.7150
H	1.9395	2.2176	-1.4378
H	3.0922	3.0202	-3.4883
H	5.0189	1.7008	-4.3944
H	5.6990	-0.3751	-3.1811
X	4.7581	-0.9606	-1.5594
X	1.9601	-0.3978	1.0612
0	1	S
1	2	S
1	3	S
3	4	D
3	8	S
4	5	S
4	9	S
5	6	D
5	10	S
6	7	S
6	11	S
7	8	S
7	12	S
8	13	S
14	0	S
