20
18	19
O	1.3978	0.8457	0.1727
C	2.3729	0.0386	0.0530
O	2.7726	-0.7723	0.9465
C	3.1148	0.0459	-1.2500
C	2.7783	0.9496	-2.2588
C	3.4760	0.9611	-3.4682
C	4.5219	0.0647	-3.7182
C	4.8453	-0.8433	-2.7030
C	4.1597	-0.8496	-1.4858
C	5.2487	0.0798	-4.9937
C	5.2897	1.2297	-5.7915
C	5.9802	1.2519	-7.0050
C	6.6440	0.1154	-7.4686
C	6.6064	-1.0389	-6.6837
C	5.9255	-1.0519	-5.4637
C	7.3762	0.1344	-8.7761
O	7.9098	-0.9533	-9.1616
O	7.4121	1.2364	-9.4088
X	1.7802	0.0288	1.0963
X	7.9667	0.1472	-9.8207
0	1	S
1	2	S
1	3	S
3	4	D
3	8	S
4	5	S
5	6	D
6	7	S
6	9	S
7	8	D
9	10	D
9	14	S
10	11	S
11	12	D
12	13	S
12	15	S
13	14	D
15	16	S
15	17	S
18	0	S
19	16	S
