34
32	33
C	2.8631	-1.4891	-0.2198
C	2.4459	-0.0413	0.0129
Si	3.1326	0.7511	1.6009
C	2.4816	2.5235	1.7711
C	1.2785	2.8196	2.4268
C	0.8574	4.1406	2.5061
N	1.5352	5.1827	1.9802
C	2.6876	4.8875	1.3475
C	3.1930	3.6001	1.2163
C	2.5048	-0.1784	3.1274
C	3.2532	-0.2186	4.3126
C	2.7746	-0.9573	5.3869
N	1.6157	-1.6472	5.3716
C	0.8996	-1.5931	4.2308
C	1.2920	-0.8843	3.1036
C	5.0082	0.7360	1.5542
H	2.4422	-1.8554	-1.1616
H	2.5085	-2.1461	0.5817
H	3.9521	-1.5880	-0.2776
H	1.3520	0.0172	0.0383
H	2.7764	0.5649	-0.8379
H	0.6609	2.0507	2.8809
H	-0.0683	4.4019	3.0109
H	3.2167	5.7400	0.9304
H	4.1290	3.4622	0.6831
H	4.2005	0.3019	4.4166
H	3.3355	-1.0180	6.3155
H	-0.0286	-2.1572	4.2399
H	0.6512	-0.9031	2.2269
H	5.3801	1.2482	0.6620
H	5.3854	-0.2908	1.5352
H	5.4280	1.2366	2.4318
X	1.3216	6.0566	1.9548
X	1.4060	-2.1768	6.0684
0	1	S
0	16	S
0	17	S
0	18	S
1	2	S
1	19	S
1	20	S
2	3	S
2	9	S
2	15	S
3	4	D
3	8	S
4	5	S
4	21	S
5	6	S
5	22	S
6	7	S
7	8	D
7	23	S
8	24	S
9	10	D
9	14	S
10	11	S
10	25	S
11	12	S
11	26	S
12	13	S
13	14	D
13	27	S
14	28	S
15	29	S
15	30	S
15	31	S
6	32	S
12	33	S
