32
30	31
O	2.6097	-0.8450	0.8831
C	2.1873	-0.0309	0.0025
O	1.1895	0.7476	0.1237
C	2.9393	0.0142	-1.3076
C	2.5392	0.8851	-2.3344
C	3.2324	0.9274	-3.5442
C	4.3263	0.0858	-3.7417
C	5.0248	0.1009	-4.9866
C	5.6237	0.0806	-6.0233
C	6.4127	0.0253	-7.3298
C	7.0651	-0.0246	-8.3331
C	7.8819	-0.0747	-9.5047
C	8.5985	1.0565	-9.8941
C	9.4247	1.0038	-11.0189
C	9.5472	-0.1768	-11.7704
C	10.4603	-0.2353	-12.9801
O	10.5198	-1.3385	-13.6103
O	11.1016	0.8232	-13.2746
C	8.8084	-1.3028	-11.3678
C	7.9815	-1.2547	-10.2419
C	4.7383	-0.7855	-2.7334
C	4.0508	-0.8161	-1.5214
H	1.6758	1.5301	-2.1736
H	2.9096	1.6132	-4.3210
H	8.5293	1.9797	-9.3264
H	9.9897	1.8849	-11.3183
H	8.8916	-2.2244	-11.9413
H	7.4297	-2.1429	-9.9475
H	5.5878	-1.4457	-2.8816
H	4.3671	-1.4924	-0.7279
X	1.5902	-0.0667	1.0428
X	11.1827	-0.2816	-13.9372
0	1	S
1	2	S
1	3	S
3	4	D
3	21	S
4	5	S
4	22	S
5	6	D
5	23	S
6	7	S
6	20	S
7	8	A
8	9	S
9	10	A
10	11	S
11	12	D
11	19	S
12	13	S
12	24	S
13	14	D
13	25	S
14	15	S
14	18	S
15	16	S
15	17	S
18	19	D
18	26	S
19	27	S
20	21	D
20	28	S
21	29	S
30	0	S
31	16	S
