19
17	18
O	1.3432	-0.5309	-0.6622
C	2.3119	0.0060	-0.0300
O	2.7451	1.1876	-0.2327
C	2.9939	-0.8243	1.0420
C	2.5732	-2.1374	1.3120
C	3.1851	-2.9059	2.3123
C	4.2374	-2.3877	3.0835
C	4.6608	-1.0774	2.8049
C	4.0575	-0.3087	1.8026
O	5.6842	-0.4932	3.5136
C	4.8757	-3.2170	4.1734
O	5.8236	-2.6553	4.8241
O	4.4419	-4.3952	4.3770
H	1.7535	-2.5615	0.7355
H	2.8353	-3.9188	2.5000
H	4.4097	0.7021	1.6132
H	5.9599	-1.1848	4.1734
X	1.7498	0.6187	-0.8953
X	5.3538	-3.9214	5.0192
0	1	S
1	2	S
1	3	S
3	4	D
3	8	S
4	5	S
4	13	S
5	6	D
5	14	S
6	7	S
6	10	S
7	8	D
7	9	S
8	15	S
9	16	S
10	11	S
10	12	S
17	0	S
18	11	S
