26
24	25
C	5.6270	-1.3373	0.9328
C	4.4332	-0.5311	0.5600
N	4.4364	0.7904	0.5040
C	3.2521	1.1408	-0.0729
C	2.5115	0.0279	-0.3768
N	3.2309	-1.0567	0.0868
C	2.7937	-2.4085	0.0523
C	1.9082	-2.8353	-0.9463
C	1.4891	-4.1700	-0.9870
C	1.9249	-5.0972	-0.0280
C	1.4694	-6.5429	-0.0664
O	1.9083	-7.3113	0.8461
O	0.6824	-6.8758	-1.0093
C	2.7885	-4.6490	0.9799
C	3.2156	-3.3203	1.0255
H	6.5084	-0.6912	1.0041
H	5.8395	-2.0983	0.1754
H	5.5078	-1.8111	1.9092
H	2.9930	2.1775	-0.2421
H	1.5270	-0.0742	-0.8089
H	1.5592	-2.1708	-1.7304
H	0.8159	-4.5067	-1.7772
H	3.1183	-5.3505	1.7460
H	3.8241	-3.0293	1.8716
X	5.0961	1.3299	0.7934
X	1.1089	-7.6871	-0.0968
0	1	S
0	15	S
0	16	S
0	17	S
1	2	S
1	5	S
2	3	S
3	4	D
3	18	S
4	5	S
4	19	S
5	6	S
6	7	D
6	14	S
7	8	S
7	20	S
8	9	D
8	21	S
9	10	S
9	13	S
10	11	S
10	12	S
13	14	D
13	22	S
14	23	S
2	24	S
25	11	S
