36
34	35
C	1.0261	-0.1689	0.2765
C	2.4300	-0.4775	-0.3255
C	3.2776	-0.9243	0.8869
C	2.2294	-1.6295	-1.3289
N	3.0494	0.7178	-1.0027
O	2.1333	1.7270	-1.3482
C	4.3996	0.8696	-1.3687
C	5.3112	-0.1858	-1.4480
C	6.6671	0.0118	-1.7312
C	7.1423	1.2897	-1.9991
C	6.2668	2.3824	-2.0444
C	6.7270	3.7103	-2.4818
C	7.6975	3.8762	-3.4618
N	8.1464	5.0631	-3.9286
C	7.5667	6.1425	-3.3860
N	6.6270	6.1382	-2.4314
C	6.2257	4.9123	-2.0095
C	4.9188	2.1433	-1.7022
H	0.6254	-1.0446	0.8025
H	0.2917	0.0911	-0.4947
H	1.0713	0.6520	1.0020
H	2.7824	-1.7301	1.4394
H	3.4331	-0.0885	1.5818
H	4.2647	-1.3081	0.6252
H	1.6231	-2.4310	-0.8896
H	3.1649	-2.0915	-1.6488
H	1.7132	-1.2817	-2.2310
H	4.9877	-1.2054	-1.3051
H	7.3436	-0.8393	-1.7399
H	8.2039	1.4126	-2.1924
H	8.1556	3.0166	-3.9448
H	7.8852	7.1097	-3.7577
H	5.4532	4.9356	-1.2443
H	4.2128	2.9724	-1.7060
X	8.7870	5.1300	-4.5572
X	6.2899	6.9031	-2.0978
0	1	S
0	18	S
0	19	S
0	20	S
1	2	S
1	3	S
1	4	S
2	21	S
2	22	S
2	23	S
3	24	S
3	25	S
3	26	S
4	5	S
4	6	S
6	7	D
6	17	S
7	8	S
7	27	S
8	9	D
8	28	S
9	10	S
9	29	S
10	11	S
10	17	D
11	12	D
11	16	S
12	13	S
12	30	S
13	14	S
14	15	S
14	31	S
15	16	S
16	32	S
17	33	S
13	34	S
15	35	S
