15
13	14
O	1.8895	-0.2217	-1.1975
C	2.2461	0.0863	-0.0176
O	1.8636	1.0792	0.6765
C	3.1104	-0.9681	0.7222
O	4.5386	-0.7524	0.5726
C	5.2678	-1.7953	1.2719
C	6.8068	-1.6321	1.1939
O	7.3874	-2.2675	0.2594
O	7.3440	-0.9986	2.1548
H	2.8589	-1.9581	0.3241
H	2.8578	-0.9496	1.7890
H	4.9920	-2.7666	0.8457
H	4.9734	-1.7849	2.3277
X	1.2748	0.6651	-0.4197
X	7.9735	-1.8588	1.3597
0	1	S
1	2	S
1	3	S
3	4	S
3	9	S
3	10	S
4	5	S
5	6	S
5	11	S
5	12	S
6	7	S
6	8	S
13	0	S
14	7	S
