13
11	12
C	1.0388	-0.0172	-0.0118
C	2.2316	0.0010	-0.0106
C	3.6559	0.0240	-0.0087
C	4.4125	-1.1282	-0.0087
N	5.7638	-1.1361	-0.0061
C	6.3560	0.0692	-0.0036
N	5.7238	1.2540	-0.0038
C	4.3736	1.2007	-0.0064
H	3.9520	-2.1132	-0.0107
H	7.4407	0.0874	-0.0011
H	3.8803	2.1697	-0.0064
X	6.2412	-1.8991	-0.0060
X	6.1753	2.0326	-0.0023
0	1	A
1	2	S
2	3	D
2	7	S
3	4	S
3	8	S
4	5	S
5	6	S
5	9	S
6	7	S
7	10	S
4	11	S
6	12	S
