20
18	19
O	2.4854	0.0149	-1.2975
C	2.3522	0.0799	-0.0420
O	1.6037	0.8451	0.6334
C	3.1202	-0.9659	0.7736
C	4.6454	-0.9006	0.6290
C	5.3798	-1.9973	1.4249
C	6.9231	-1.9768	1.3216
O	7.4717	-0.8609	1.1069
O	7.4800	-3.1042	1.4987
C	5.0978	-1.9242	2.9262
H	2.7616	-1.9559	0.4635
H	2.8389	-0.8412	1.8239
H	4.9930	0.0939	0.9380
H	4.9170	-0.9955	-0.4324
H	5.0423	-2.9729	1.0532
H	5.3404	-0.9342	3.3283
H	5.6826	-2.6631	3.4866
H	4.0447	-2.1301	3.1420
X	1.4401	0.6437	-0.5808
X	8.0747	-2.3131	1.3490
0	1	S
1	2	S
1	3	S
3	4	S
3	10	S
3	11	S
4	5	S
4	12	S
4	13	S
5	6	S
5	9	S
5	14	S
6	7	S
6	8	S
9	15	S
9	16	S
9	17	S
18	0	S
19	7	S
