32
30	31
O	1.9127	-0.4573	1.1917
C	2.3792	0.0557	0.1316
O	2.2353	1.2387	-0.3030
C	3.1296	-0.9092	-0.8109
O	4.5369	-0.9197	-0.5004
C	5.3167	-1.8033	-1.2234
C	5.0173	-2.1794	-2.5312
C	5.8601	-3.0492	-3.2208
C	7.0108	-3.5513	-2.6055
C	7.3638	-3.1827	-1.2908
C	8.5304	-3.6701	-0.6311
O	9.3111	-4.6136	-1.2802
C	10.2065	-5.3546	-0.4123
C	10.8085	-6.6238	-1.0446
O	10.6021	-6.8406	-2.2672
O	11.4901	-7.3195	-0.2223
C	8.8544	-3.1942	0.6468
C	8.0096	-2.3231	1.3201
C	6.8394	-1.8880	0.7063
C	6.4976	-2.2811	-0.6015
H	2.9641	-0.5523	-1.8327
H	2.7150	-1.9184	-0.6981
H	4.1465	-1.7898	-3.0453
H	5.6222	-3.3309	-4.2421
H	7.6521	-4.2319	-3.1656
H	9.6646	-5.6874	0.4828
H	11.0508	-4.7114	-0.1384
H	9.7635	-3.4988	1.1538
H	8.2524	-1.9963	2.3234
H	6.1793	-1.2229	1.2628
X	1.7958	0.8059	0.8643
X	11.2774	-7.6125	-1.5371
0	1	S
1	2	S
1	3	S
3	4	S
3	20	S
3	21	S
4	5	S
5	6	D
5	19	S
6	7	S
6	22	S
7	8	D
7	23	S
8	9	S
8	24	S
9	10	S
9	19	D
10	11	S
10	16	D
11	12	S
12	13	S
12	25	S
12	26	S
13	14	S
13	15	S
16	17	S
16	27	S
17	18	D
17	28	S
18	19	S
18	29	S
30	0	S
31	14	S
