34
32	33
O	1.1849	-0.3252	0.2515
S	2.5920	0.0722	0.1870
O	2.7588	1.5049	0.4744
O	3.5736	-0.7476	0.8972
C	3.0799	-0.0742	-1.5802
C	3.4439	1.1449	-2.2168
C	4.0617	1.2089	-3.4844
C	4.5185	2.5017	-4.0668
C	4.9505	3.5433	-3.2391
C	5.3544	4.7783	-3.7590
C	5.3794	5.0471	-5.1457
C	5.7001	6.4684	-5.5647
O	5.1130	6.9751	-6.5698
O	6.4276	7.1485	-4.7554
C	5.0381	3.9830	-5.9981
S	5.3426	3.9937	-7.8060
O	5.5193	2.5662	-8.1205
O	4.1163	4.5466	-8.3842
O	6.5811	4.7457	-7.9958
C	4.5913	2.7425	-5.4557
C	4.2777	-0.0132	-4.1241
C	3.8901	-1.2231	-3.5243
C	3.2756	-1.2969	-2.2469
C	2.8763	-2.6748	-1.7473
O	3.4650	-3.6708	-2.3173
O	1.9386	-2.8272	-0.9182
H	3.2579	2.0715	-1.6778
H	4.9778	3.4129	-2.1599
H	5.6512	5.5622	-3.0639
H	4.3017	1.9616	-6.1554
H	4.7753	-0.0511	-5.0903
H	4.0918	-2.1495	-4.0619
X	5.9539	7.5934	-5.8963
X	2.5609	-3.7633	-1.3526
0	1	S
1	2	S
1	3	S
1	4	S
4	5	D
4	22	S
5	6	S
5	26	S
6	7	S
6	20	D
7	8	D
7	19	S
8	9	S
8	27	S
9	10	D
9	28	S
10	11	S
10	14	S
11	12	S
11	13	S
14	15	S
14	19	D
15	16	S
15	17	S
15	18	S
19	29	S
20	21	S
20	30	S
21	22	D
21	31	S
22	23	S
23	24	S
23	25	S
32	12	S
33	24	S
