24
22	23
O	1.1970	0.5328	-0.0221
C	2.4061	0.1153	-0.0295
O	2.9200	-0.5595	0.9215
C	3.2603	0.4960	-1.2433
C	2.8601	1.6352	-1.9637
C	3.5641	2.0831	-3.0781
C	4.7134	1.4197	-3.5428
C	5.1600	0.2585	-2.8305
C	4.4205	-0.2103	-1.6879
C	4.8791	-1.3879	-1.0457
C	6.0219	-2.0792	-1.4419
C	6.7520	-1.6144	-2.5144
C	6.3246	-0.4704	-3.1899
C	5.3783	2.0093	-4.7933
O	6.1265	1.2708	-5.5140
O	5.1189	3.2289	-5.0708
H	1.9762	2.1842	-1.6446
H	3.2100	2.9685	-3.6033
H	4.3374	-1.7989	-0.1981
H	6.3256	-2.9679	-0.9011
H	7.6472	-2.1327	-2.8398
H	6.9357	-0.1472	-4.0291
X	1.5668	0.0756	0.8273
X	5.6667	2.6858	-5.7416
0	1	S
1	2	S
1	3	S
3	4	D
3	8	S
4	5	S
4	16	S
5	6	D
5	17	S
6	7	S
6	13	S
7	8	D
7	12	S
8	9	S
9	10	D
9	18	S
10	11	S
10	19	S
11	12	D
11	20	S
12	21	S
13	14	S
13	15	S
22	0	S
23	14	S
