28
26	27
C	-1.0592	0.2428	-0.4267
C	-0.1582	-0.6906	-0.8816
N	0.9115	-0.6504	-0.0112
C	2.0989	-1.4369	-0.0597
C	2.3087	-2.3494	-1.1009
C	3.4777	-3.1215	-1.1492
C	4.4540	-3.0011	-0.1525
N	5.6391	-3.7912	-0.1967
C	6.0100	-4.6936	-1.1715
C	7.2262	-5.2023	-0.7819
N	7.6240	-4.6539	0.4008
C	6.6622	-3.8190	0.7285
C	4.2431	-2.0896	0.8894
C	3.0780	-1.3124	0.9337
C	0.5839	0.3160	0.9178
N	-0.5895	0.8643	0.6917
H	-2.0229	0.4955	-0.8502
H	-0.2117	-1.3568	-1.7275
H	1.5876	-2.4892	-1.9012
H	3.5840	-3.8103	-1.9825
H	5.4150	-4.9030	-2.0465
H	7.8339	-5.9357	-1.2962
H	6.6663	-3.2218	1.6288
H	4.9626	-1.9453	1.6903
H	2.9755	-0.6250	1.7685
H	1.2287	0.5937	1.7389
X	8.3740	-4.8119	0.8725
X	-0.9778	1.5098	1.1841
0	1	D
0	15	S
0	16	S
1	2	S
1	17	S
2	3	S
2	14	S
3	4	D
3	13	S
4	5	S
4	18	S
5	6	D
5	19	S
6	7	S
6	12	S
7	8	S
7	11	S
8	9	D
8	20	S
9	10	S
9	21	S
10	11	S
11	22	S
12	13	D
12	23	S
13	24	S
14	15	S
14	25	S
10	26	S
15	27	S
