26
24	25
O	5.7230	3.1246	-2.7734
P	6.5218	2.8311	-1.5083
O	7.9985	2.4869	-1.7196
O	6.2332	3.7671	-0.3361
C	5.8114	1.1394	-0.8644
N	6.3913	0.0852	-1.7299
C	6.4473	-1.1732	-1.0030
C	6.9241	-2.3724	-1.8039
C	7.9469	-2.2754	-2.7560
C	8.4021	-3.4097	-3.4451
C	7.8623	-4.6825	-3.1960
C	8.3503	-5.9085	-3.9496
O	7.8320	-7.0331	-3.6398
O	9.2490	-5.7462	-4.8380
C	6.8524	-4.7811	-2.2242
C	6.3954	-3.6492	-1.5356
H	4.7218	1.1806	-0.9090
H	6.1813	1.0815	0.1656
H	5.4284	-1.3990	-0.6594
H	7.0815	-1.0882	-0.1118
H	8.3901	-1.3057	-2.9760
H	9.1861	-3.2985	-4.1917
H	6.4217	-5.7580	-2.0092
H	5.6131	-3.7678	-0.7896
X	5.5774	-0.2516	-1.5450
X	8.7357	-6.8767	-4.5447
0	1	S
1	2	S
1	3	D
1	4	S
4	5	S
4	16	S
4	17	S
5	6	S
6	7	S
6	18	S
6	19	S
7	8	D
7	15	S
8	9	S
8	20	S
9	10	D
9	21	S
10	11	S
10	14	S
11	12	S
11	13	S
14	15	D
14	22	S
15	23	S
5	24	S
25	12	S
