13
11	12
O	2.5157	-0.9613	0.8080
C	2.0994	0.0752	0.1982
O	1.0659	0.7466	0.5282
C	2.8616	0.5471	-0.9846
C	2.5109	1.6589	-1.7153
C	3.3807	1.8969	-2.8043
C	4.3876	0.9640	-2.8978
C	5.4194	0.9821	-3.9655
O	6.3073	0.0708	-3.9587
O	5.3429	1.9187	-4.8274
S	4.2706	-0.1907	-1.6322
X	1.4831	-0.3064	1.1546
X	6.2532	0.9967	-4.8283
0	1	S
1	2	S
1	3	S
3	4	D
3	10	S
4	5	S
5	6	D
6	7	S
6	10	S
7	8	S
7	9	S
11	0	S
12	8	S
