14
12	13
C	-1.2670	0.3459	-0.2762
C	-0.9715	-1.0098	-0.2911
C	0.3298	-1.4289	0.0014
C	0.6887	-2.8519	0.0036
C	-0.1145	-3.8022	-0.6335
C	0.2660	-5.1365	-0.6086
N	1.3757	-5.5906	0.0077
C	2.1389	-4.6642	0.6214
C	1.8443	-3.3085	0.6418
C	1.2745	-0.4404	0.2932
C	0.8880	0.8924	0.2747
N	-0.3643	1.3096	-0.0013
X	1.5948	-6.4635	0.0093
X	-0.5852	2.1821	-0.0020
0	1	D
0	11	S
1	2	S
2	3	S
2	9	D
3	4	D
3	8	S
4	5	S
5	6	S
6	7	S
7	8	D
9	10	S
10	11	S
6	12	S
11	13	S
