27
25	26
C	1.0366	0.1329	-0.0239
O	2.3808	0.0929	-0.2406
C	3.0179	-1.1355	-0.1934
O	2.4433	-2.2818	-0.7143
C	2.4568	-2.2034	-2.1385
C	4.4646	-1.1474	0.0940
C	5.1797	0.0548	0.1897
C	6.5674	0.0847	0.4226
C	7.2914	1.4198	0.4897
O	8.5488	1.4161	0.6790
O	6.5844	2.4738	0.3454
C	7.2385	-1.1463	0.5755
C	6.5542	-2.3787	0.5041
C	7.2734	-3.7093	0.6728
O	6.5639	-4.7674	0.5916
O	8.5294	-3.6967	0.8793
C	5.1649	-2.3516	0.2631
H	0.6397	1.1312	-0.0896
H	0.6135	-0.6926	0.5219
H	2.2017	-3.1905	-2.5352
H	3.4434	-1.9282	-2.5293
H	1.7022	-1.4917	-2.4905
H	4.6669	1.0077	0.0693
H	8.3149	-1.1454	0.7543
H	4.6361	-3.3023	0.2101
X	7.8629	2.4737	0.5427
X	7.8405	-4.7585	0.8058
0	1	S
0	17	S
0	18	S
1	2	S
2	3	S
2	5	S
3	4	S
4	19	S
4	20	S
4	21	S
5	6	D
5	16	S
6	7	S
6	22	S
7	8	S
7	11	D
8	9	S
8	10	S
11	12	S
11	23	S
12	13	S
12	16	D
13	14	S
13	15	S
16	24	S
25	9	S
26	14	S
