22
20	21
C	0.7775	1.3482	-0.2916
C	-0.7773	1.3483	-0.2916
N	-1.3417	0.0001	-0.0003
C	-0.7773	-0.4218	1.3134
C	0.7775	-0.4216	1.3134
N	1.3417	-0.0000	0.0001
C	0.7773	-0.9269	-1.0218
C	-0.7774	-0.9265	-1.0220
H	1.1491	2.0649	0.4512
H	1.1491	1.6938	-1.2643
H	-1.1489	1.6940	-1.2643
H	-1.1490	2.0650	0.4513
H	-1.1490	-1.4235	1.5623
H	-1.1492	0.2477	2.0990
H	1.1491	-1.4233	1.5628
H	1.1489	0.2479	2.0991
H	1.1488	-1.9420	-0.8343
H	1.1493	-0.6420	-2.0138
H	-1.1493	-1.9417	-0.8354
H	-1.1487	-0.6412	-2.0142
X	-2.2417	0.0002	-0.0005
X	2.2417	0.0000	0.0002
0	1	S
0	5	S
0	8	S
0	9	S
1	2	S
1	10	S
1	11	S
2	3	S
2	7	S
3	4	S
3	12	S
3	13	S
4	5	S
4	14	S
4	15	S
5	6	S
6	7	S
6	16	S
6	17	S
7	18	S
7	19	S
2	20	S
5	21	S
