15
13	14
O	1.2366	-0.8481	0.0520
C	2.2235	-0.0615	-0.0907
O	2.6497	0.4132	-1.1878
C	2.9529	0.3434	1.1563
C	4.0487	1.1992	1.0926
N	4.7631	1.6173	2.1731
C	4.3515	1.1452	3.3733
C	3.2761	0.2862	3.5458
Cl	2.8363	-0.2651	5.1123
C	2.5671	-0.1176	2.4231
H	4.3922	1.5840	0.1339
H	4.9340	1.4908	4.2212
H	1.7154	-0.7882	2.5081
X	5.4667	2.1735	2.0983
X	1.6401	-0.3853	-1.0881
0	1	S
1	2	S
1	3	S
3	4	D
3	9	S
4	5	S
4	10	S
5	6	S
6	7	S
6	11	S
7	8	S
7	9	D
9	12	S
5	13	S
14	0	S
