18
16	17
O	2.4767	-0.3823	-1.4646
C	2.3577	-1.1891	-0.4949
O	1.6514	-2.2400	-0.4342
C	3.0773	-0.8008	0.8045
C	4.5726	-0.6903	0.6612
C	5.4637	-1.3568	1.4182
C	6.9578	-1.2485	1.2653
C	7.6913	-0.8318	2.5510
O	7.5868	-1.6230	3.5324
O	8.3912	0.2229	2.4591
H	2.8166	-1.5129	1.5952
H	2.6856	0.1758	1.1158
H	4.9228	-0.0010	-0.1055
H	5.1148	-2.0464	2.1844
H	7.2156	-0.5525	0.4576
H	7.3475	-2.2303	0.9705
X	1.7952	-1.4926	-1.5105
X	8.2637	-0.5066	3.5543
0	1	S
1	2	S
1	3	S
3	4	S
3	10	S
3	11	S
4	5	D
4	12	S
5	6	S
5	13	S
6	7	S
6	14	S
6	15	S
7	8	S
7	9	S
16	0	S
17	8	S
