48
46	47
C	-0.1276	-4.1825	0.7315
O	1.2565	-4.5007	0.8289
C	2.0701	-4.1531	-0.2146
C	1.6586	-3.8213	-1.4930
C	2.6219	-3.6769	-2.4944
C	3.9809	-3.7078	-2.2297
N	4.8042	-3.6487	-3.2827
C	6.1260	-3.6215	-3.0417
C	6.6602	-3.4947	-1.7780
C	5.8155	-3.4598	-0.6473
C	6.4361	-3.0342	0.6996
O	7.8433	-2.7314	0.4754
C	5.9241	-1.8116	1.5979
C	4.5071	-1.9651	2.1226
C	3.5990	-0.8771	1.5273
C	3.8978	-0.5503	0.0460
C	5.3805	-0.2210	-0.1548
N	6.1332	-0.3994	1.0964
C	5.5157	0.5671	2.1120
C	3.9812	0.3973	2.2882
C	3.3845	0.3569	3.7061
O	4.2014	0.5791	4.6496
O	2.1497	0.1226	3.7681
C	4.4319	-3.7865	-0.8918
C	3.4488	-4.1759	0.0609
H	-0.2926	-3.1126	0.8977
H	-0.6476	-4.7303	1.5243
H	-0.5790	-4.5039	-0.2123
H	0.6163	-3.7280	-1.7648
H	2.2957	-3.5168	-3.5161
H	6.7625	-3.6699	-3.9176
H	7.7377	-3.3953	-1.6847
H	6.4409	-3.9316	1.3292
H	7.8874	-1.7509	0.5016
H	6.5903	-1.8608	2.4706
H	4.5376	-1.8794	3.2178
H	4.1224	-2.9618	1.9905
H	2.5478	-1.1575	1.6467
H	3.3058	0.3230	-0.2568
H	3.5863	-1.3537	-0.6154
H	5.4994	0.8101	-0.5120
H	5.8183	-0.8272	-0.9523
H	5.6972	1.5874	1.7457
H	6.0632	0.4960	3.0565
H	3.4781	1.2552	1.8155
H	3.7541	-4.5232	1.0417
X	4.4807	-3.6280	-4.1223
X	2.9192	0.3254	4.8118
0	1	S
0	25	S
0	26	S
0	27	S
1	2	S
2	3	D
2	24	S
3	4	S
3	28	S
4	5	D
4	29	S
5	6	S
5	23	S
6	7	S
7	8	S
7	30	S
8	9	D
8	31	S
9	10	S
9	23	S
10	11	S
10	12	S
10	32	S
11	33	S
12	13	S
12	17	S
12	34	S
13	14	S
13	35	S
13	36	S
14	15	S
14	19	S
14	37	S
15	16	S
15	38	S
15	39	S
16	17	S
16	40	S
16	41	S
17	18	S
18	19	S
18	42	S
18	43	S
19	20	S
19	44	S
20	21	S
20	22	S
23	24	D
24	45	S
6	46	S
47	21	S
