12
10	11
O	1.0769	0.0180	0.1109
C	2.3363	0.1059	-0.0222
O	2.9879	0.7032	-0.9267
C	3.1378	-0.6144	1.0684
C	4.4824	-0.6641	1.1436
C	5.2838	-1.3844	2.2342
O	4.6323	-1.9818	3.1387
O	6.5432	-1.2965	2.1012
H	2.5547	-1.1202	1.8342
H	5.0654	-0.1583	0.3778
X	1.4521	0.5530	-0.6991
X	6.1680	-1.8315	2.9111
0	1	S
1	2	S
1	3	S
3	4	D
3	8	S
4	5	S
4	9	S
5	6	S
5	7	S
10	0	S
11	6	S
