12
10	11
O	0.9227	-0.0235	-0.0544
C	2.1849	0.0011	0.0785
O	2.8570	0.1961	1.1320
C	2.9613	-0.2394	-1.2213
C	4.3039	-0.2590	-1.3273
C	5.0919	-0.4982	-2.6200
O	4.4297	-0.6942	-3.6793
O	6.3528	-0.4714	-2.4751
H	2.3637	-0.4046	-2.1144
H	4.8984	-0.0933	-0.4320
X	1.5772	0.1894	1.0959
X	5.7088	-0.6855	-3.6321
0	1	S
1	2	S
1	3	S
3	4	D
3	8	S
4	5	S
4	9	S
5	6	S
5	7	S
10	0	S
11	6	S
