20
18	19
O	1.3842	0.3538	-0.7078
C	2.3519	0.0620	0.0632
O	2.7464	0.7621	1.0497
C	3.0894	-1.2128	-0.2126
C	4.1507	-1.6159	0.5998
C	4.8311	-2.8080	0.3446
C	4.4842	-3.6271	-0.7358
C	5.2047	-4.8740	-1.0075
C	5.8126	-5.6017	0.0219
C	6.4896	-6.7953	-0.2344
C	6.5916	-7.2922	-1.5354
C	7.3228	-8.5697	-1.8158
O	7.3871	-8.9523	-3.0253
O	7.8265	-9.1831	-0.8221
C	5.9956	-6.5689	-2.5703
C	5.3080	-5.3832	-2.3071
C	3.4234	-3.2106	-1.5488
C	2.7311	-2.0270	-1.2887
X	1.7613	1.0830	0.2841
X	7.9084	-9.5928	-2.0404
0	1	S
1	2	S
1	3	S
3	4	D
3	17	S
4	5	S
5	6	D
6	7	S
6	16	S
7	8	D
7	15	S
8	9	S
9	10	D
10	11	S
10	14	S
11	12	S
11	13	S
14	15	D
16	17	D
18	0	S
19	12	S
