15
13	14
O	2.8619	-0.8167	-0.8265
C	2.3992	0.0110	0.0215
O	1.3442	-0.1725	0.7211
C	3.1266	1.2991	0.2303
C	2.7365	2.2823	1.1254
C	3.6720	3.3348	1.0256
C	4.6019	2.9692	0.0658
C	5.7554	3.8189	-0.3588
O	6.5436	3.3717	-1.2519
O	5.8695	4.9563	0.2140
O	4.2725	1.7179	-0.4142
H	1.8675	2.2201	1.7644
H	3.6881	4.2672	1.5710
X	1.8149	-1.0236	-0.1462
X	6.6817	4.5013	-0.6998
0	1	S
1	2	S
1	3	S
3	4	D
3	10	S
4	5	S
4	11	S
5	6	D
5	12	S
6	7	S
6	10	S
7	8	S
7	9	S
13	0	S
14	8	S
