14
12	13
O	1.3642	0.4476	-0.6910
C	2.3784	0.0994	-0.0038
O	2.8157	0.7270	1.0144
C	3.1106	-1.1397	-0.4242
C	4.2341	-1.5838	0.2787
C	4.9157	-2.7406	-0.1110
C	4.4936	-3.4858	-1.2153
C	5.2245	-4.7274	-1.6321
O	4.7882	-5.3551	-2.6510
O	6.2361	-5.0776	-0.9419
C	3.3714	-3.0414	-1.9191
C	2.6892	-1.8849	-1.5290
X	1.7924	1.0911	0.3327
X	5.8093	-5.7208	-1.9656
0	1	S
1	2	S
1	3	S
3	4	D
3	11	S
4	5	S
5	6	D
6	7	S
6	10	S
7	8	S
7	9	S
10	11	D
12	0	S
13	8	S
