37
35	36
O	2.0372	-0.4422	1.1917
C	2.1602	0.1635	0.0874
O	1.6144	1.2778	-0.2131
C	3.0183	-0.4949	-0.9851
C	3.1703	0.0801	-2.2426
C	3.9063	-0.5657	-3.2571
C	4.4814	-1.8396	-3.0583
C	5.2313	-2.6061	-4.2134
C	6.7458	-2.2264	-4.2374
C	7.3020	-1.2935	-3.3392
C	8.6670	-0.9804	-3.3539
C	9.5371	-1.5863	-4.2650
C	11.0170	-1.2568	-4.2696
O	11.7460	-1.8727	-5.1085
O	11.4296	-0.3902	-3.4320
C	8.9897	-2.5073	-5.1712
C	7.6289	-2.8228	-5.1635
C	5.0810	-4.1427	-4.0193
F	3.9635	-4.4987	-3.3378
F	5.0428	-4.8734	-5.1560
F	6.1210	-4.6655	-3.3096
C	4.5793	-2.2781	-5.5903
F	3.2821	-1.8896	-5.5028
F	5.2207	-1.2556	-6.2239
F	4.5757	-3.2881	-6.4912
C	4.3894	-2.3682	-1.7555
C	3.6545	-1.7173	-0.7449
H	2.7122	1.0458	-2.4476
H	4.0089	-0.0354	-4.2027
H	6.6970	-0.7708	-2.5985
H	9.0587	-0.2493	-2.6464
H	9.6559	-2.9883	-5.8879
H	7.2721	-3.5508	-5.8914
H	4.8697	-3.3071	-1.4846
H	3.5645	-2.1788	0.2314
X	1.4842	0.6822	0.9323
X	12.1883	-0.9960	-4.2732
0	1	S
1	2	S
1	3	S
3	4	D
3	26	S
4	5	S
4	27	S
5	6	D
5	28	S
6	7	S
6	25	S
7	8	S
7	17	S
7	21	S
8	9	D
8	16	S
9	10	S
9	29	S
10	11	D
10	30	S
11	12	S
11	15	S
12	13	S
12	14	S
15	16	D
15	31	S
16	32	S
17	18	S
17	19	S
17	20	S
21	22	S
21	23	S
21	24	S
25	26	D
25	33	S
26	34	S
35	0	S
36	13	S
