37
35	36
O	2.5999	1.1341	0.7881
C	2.2062	0.1982	0.0242
O	1.2301	-0.5857	0.2575
C	2.9745	-0.0211	-1.2651
C	4.0662	0.7848	-1.5995
C	4.8055	0.5596	-2.7751
C	4.4891	-0.4973	-3.6445
C	3.3508	-1.2668	-3.3314
C	2.6127	-1.0331	-2.1535
C	5.3107	-0.7835	-4.9564
C	6.7799	-0.2925	-4.8188
F	7.2641	-0.3877	-3.5549
F	7.6781	-0.9409	-5.5970
F	6.9066	1.0181	-5.1658
C	5.4002	-2.3222	-5.1867
F	5.2327	-3.0534	-4.0559
F	4.4364	-2.7597	-6.0452
F	6.5634	-2.7692	-5.7151
C	4.6392	-0.0857	-6.1769
C	3.4836	0.7161	-6.0361
C	2.8721	1.3158	-7.1451
C	3.3836	1.1583	-8.4255
C	4.5558	0.3904	-8.5736
C	5.1715	-0.2182	-7.4707
C	2.7048	1.7967	-9.6234
O	3.2508	1.6326	-10.7538
O	1.6294	2.4508	-9.4044
H	4.3451	1.6004	-0.9312
H	5.6208	1.2450	-2.9758
H	2.9907	-2.0574	-3.9894
H	1.7488	-1.6611	-1.9311
H	3.0129	0.8973	-5.0729
H	1.9663	1.9106	-6.9980
H	4.9718	0.2620	-9.5663
H	6.0673	-0.8057	-7.6581
X	1.7602	0.2589	1.1366
X	2.3699	2.2204	-10.6950
0	1	S
1	2	S
1	3	S
3	4	D
3	8	S
4	5	S
4	27	S
5	6	D
5	28	S
6	7	S
6	9	S
7	8	D
7	29	S
8	30	S
9	10	S
9	14	S
9	18	S
10	11	S
10	12	S
10	13	S
14	15	S
14	16	S
14	17	S
18	19	D
18	23	S
19	20	S
19	31	S
20	21	D
20	32	S
21	22	S
21	24	S
22	23	D
22	33	S
23	34	S
24	25	S
24	26	S
35	0	S
36	25	S
