10
8	9
C	1.0965	0.3860	0.0022
C	0.6790	-0.9258	0.0022
N	-0.6703	-0.9370	0.0029
C	-1.0696	0.3529	0.0040
N	0.0014	1.1747	0.0030
H	2.1077	0.7622	0.0019
H	1.2872	-1.8172	0.0021
H	-2.1007	0.6810	0.0059
X	-1.2010	-1.6639	0.0027
X	-0.0121	2.0746	0.0029
0	1	D
0	4	S
0	5	S
1	2	S
1	6	S
2	3	S
3	4	S
3	7	S
2	8	S
4	9	S
