34
32	33
C	-0.6235	0.5424	1.3621
C	-0.0412	-0.0927	0.2899
N	1.0652	-0.7146	0.8073
C	2.0866	-1.4358	0.0668
C	1.7858	-2.9115	-0.0190
C	1.0482	-3.4238	-1.0950
C	0.7194	-4.7819	-1.1543
C	1.1303	-5.6611	-0.1433
C	0.7330	-7.1153	-0.1714
N	1.7013	-7.9506	-0.8599
C	1.6597	-8.3262	-2.1753
C	2.6647	-9.2556	-2.3118
N	3.3224	-9.4386	-1.1234
C	2.7223	-8.6405	-0.2687
C	1.8962	-5.1546	0.9160
C	2.2147	-3.7943	0.9815
C	1.1010	-0.4387	2.1468
N	0.0927	0.3196	2.5104
H	-1.5164	1.1547	1.3713
H	-0.3112	-0.1417	-0.7537
H	3.0489	-1.2598	0.5615
H	2.1556	-0.9898	-0.9329
H	0.7139	-2.7644	-1.8937
H	0.1226	-5.1407	-1.9907
H	-0.2365	-7.2465	-0.6664
H	0.6200	-7.5043	0.8479
H	0.9366	-7.9338	-2.8757
H	2.9436	-9.8094	-3.1992
H	2.9752	-8.5407	0.7787
H	2.2361	-5.8134	1.7126
H	2.7949	-3.4326	1.8284
H	1.8811	-0.8053	2.8010
X	4.0170	-9.9804	-0.9391
X	-0.0686	0.6152	3.3450
0	1	D
0	17	S
0	18	S
1	2	S
1	19	S
2	3	S
2	16	S
3	4	S
3	20	S
3	21	S
4	5	D
4	15	S
5	6	S
5	22	S
6	7	D
6	23	S
7	8	S
7	14	S
8	9	S
8	24	S
8	25	S
9	10	S
9	13	S
10	11	D
10	26	S
11	12	S
11	27	S
12	13	S
13	28	S
14	15	D
14	29	S
15	30	S
16	17	S
16	31	S
12	32	S
17	33	S
