14
12	13
O	1.1713	-0.1178	0.1120
C	2.4299	0.0310	0.0245
O	3.0589	0.9807	-0.5233
C	3.2532	-1.0903	0.6689
C	4.7754	-0.9717	0.6007
C	5.5991	-2.0938	1.2437
O	4.9700	-3.0450	1.7889
O	6.8576	-1.9439	1.1577
H	2.9478	-2.0322	0.1952
H	2.9480	-1.1552	1.7212
H	5.0807	-0.0305	1.0754
H	5.0806	-0.9056	-0.4515
X	1.4805	0.6675	-0.3410
X	6.5486	-2.7304	1.6087
0	1	S
1	2	S
1	3	S
3	4	S
3	8	S
3	9	S
4	5	S
4	10	S
4	11	S
5	6	S
5	7	S
12	0	S
13	6	S
