22
20	21
C	4.7200	-2.1138	-0.3988
C	5.9009	-2.8601	-0.3876
N	5.8838	-4.1592	0.0109
C	4.7347	-4.7672	0.4061
C	3.5309	-4.0583	0.4099
C	3.5131	-2.7125	0.0032
C	2.2447	-1.9385	-0.0017
C	1.0401	-2.5381	-0.4091
C	-0.1405	-1.7914	-0.4074
N	-0.1252	-0.4907	-0.0138
C	1.0217	0.1183	0.3862
C	2.2250	-0.5913	0.4003
H	4.7480	-1.0847	-0.7354
H	6.8319	-2.4060	-0.6997
H	4.7554	-5.8019	0.7216
H	2.6276	-4.5525	0.7447
H	1.0138	-3.5680	-0.7427
H	-1.0700	-2.2461	-0.7233
H	0.9996	1.1543	0.6976
H	3.1265	-0.0965	0.7390
X	6.6520	-4.6282	0.0131
X	-0.8931	-0.0213	-0.0181
0	1	D
0	5	S
1	2	S
2	3	S
3	4	S
4	5	D
5	6	S
6	7	D
6	11	S
7	8	S
8	9	S
9	10	S
10	11	D
0	12	S
1	13	S
3	14	S
4	15	S
7	16	S
8	17	S
10	18	S
11	19	S
2	20	S
9	21	S
