22
20	21
N	4.3391	1.5258	0.0320
C	4.3281	0.2375	-0.4001
C	3.1330	-0.4855	-0.4215
C	1.9408	0.1248	0.0067
C	1.9878	1.4593	0.4478
C	3.2048	2.1452	0.4520
C	0.6574	-0.6249	-0.0067
C	0.6162	-1.9839	0.3526
C	-0.6010	-2.6692	0.3330
N	-1.7410	-2.0258	-0.0315
C	-1.7358	-0.7135	-0.3843
C	-0.5407	0.0100	-0.3791
H	5.2480	-0.2258	-0.7316
H	3.1391	-1.5049	-0.7864
H	1.0972	1.9624	0.8030
H	3.2476	3.1710	0.7933
H	1.5117	-2.5072	0.6634
H	-0.6394	-3.7139	0.6119
H	-2.6601	-0.2312	-0.6734
H	-0.5517	1.0497	-0.6810
X	5.1162	1.9797	0.0402
X	-2.5181	-2.4797	-0.0396
0	5	S
0	1	S
1	2	D
2	3	S
3	4	D
3	6	S
4	5	S
6	11	S
6	7	D
7	8	S
8	9	S
9	10	S
10	11	D
1	12	S
2	13	S
4	14	S
5	15	S
7	16	S
8	17	S
10	18	S
11	19	S
0	20	S
9	21	S
