13
11	12
C	1.1469	0.0085	-0.0586
C	2.6153	-0.0262	-0.0589
N	3.4181	1.0603	-0.0631
C	4.6877	0.6019	-0.0587
C	4.6475	-0.7746	-0.0525
N	3.3534	-1.1579	-0.0531
H	0.7786	1.0390	-0.0569
H	0.7626	-0.4990	0.8315
H	0.7620	-0.4967	-0.9496
H	5.5568	1.2416	-0.0596
H	5.4767	-1.4650	-0.0476
X	3.1578	1.9218	-0.0679
X	3.0433	-2.0028	-0.0502
0	1	S
0	6	S
0	7	S
0	8	S
1	2	S
1	5	S
2	3	S
3	4	D
3	9	S
4	5	S
4	10	S
2	11	S
5	12	S
