30
28	29
C	-0.8912	0.5844	0.5616
C	0.1442	-0.1632	1.0702
N	0.7955	-0.6460	-0.0300
C	1.9969	-1.4492	-0.0223
C	1.7016	-2.9486	-0.0023
C	2.9768	-3.7961	0.0011
C	3.8436	-3.5411	1.2354
N	5.0456	-4.3415	1.2479
C	6.2600	-3.9797	0.7365
C	7.0959	-5.0260	1.0465
N	6.4190	-6.0045	1.7286
C	5.1876	-5.5620	1.8393
C	0.1530	-0.1776	-1.1387
N	-0.8778	0.5664	-0.8093
H	-1.6421	1.1390	1.1094
H	0.4585	-0.3738	2.0828
H	2.5645	-1.1419	0.8621
H	2.5882	-1.1804	-0.9051
H	1.1015	-3.2167	-0.8817
H	1.0912	-3.2016	0.8740
H	3.5518	-3.5966	-0.9119
H	2.6962	-4.8563	-0.0375
H	3.2843	-3.7569	2.1526
H	4.1695	-2.4971	1.2849
H	6.4290	-3.0437	0.2222
H	8.1494	-5.1248	0.8197
H	4.3751	-6.0756	2.3381
H	0.4756	-0.3994	-2.1475
X	6.7254	-6.7896	2.0443
X	-1.4406	0.9680	-1.3854
0	1	D
0	13	S
0	14	S
1	2	S
1	15	S
2	3	S
2	12	S
3	4	S
3	16	S
3	17	S
4	5	S
4	18	S
4	19	S
5	6	S
5	20	S
5	21	S
6	7	S
6	22	S
6	23	S
7	8	S
7	11	S
8	9	D
8	24	S
9	10	S
9	25	S
10	11	S
11	26	S
12	13	S
12	27	S
10	28	S
13	29	S
