10
8	9
C	-0.0398	1.1008	-0.2928
C	1.1043	0.2489	-0.0406
N	0.7009	-0.9625	0.1676
C	-0.6758	-0.8683	0.0451
N	-1.1539	0.3114	-0.2254
H	-0.0397	2.1289	-0.6107
H	2.1308	0.6347	-0.0441
H	-1.3133	-1.7580	0.1704
X	1.2281	-1.6696	0.3467
X	-2.0214	0.5240	-0.3361
0	1	S
0	4	S
0	5	S
1	2	S
1	6	S
2	3	S
3	4	S
3	7	S
2	8	S
4	9	S
