30
28	29
O	2.9281	-0.4063	-0.9519
C	2.2361	-0.0573	0.0643
O	0.9632	0.0428	0.0535
C	2.9745	0.2611	1.3588
C	2.5840	-0.3830	2.5739
C	1.5480	-1.3563	2.6149
C	1.1189	-1.9708	3.7907
C	1.7206	-1.6273	4.9789
C	2.7574	-0.6919	4.9753
C	3.2389	-0.0599	3.7937
C	4.3328	0.8727	3.7877
C	5.0540	1.2140	5.0970
O	5.2873	2.4419	5.3568
O	5.3901	0.2560	5.8702
C	4.7505	1.4874	2.5624
C	5.8525	2.3867	2.4757
C	6.2331	3.0247	1.2968
C	5.5198	2.7808	0.1399
C	4.4569	1.8912	0.1773
C	4.0492	1.2067	1.3557
H	1.0425	-1.6501	1.6967
H	0.3171	-2.7001	3.7578
H	1.4071	-2.0789	5.9162
H	3.2043	-0.4551	5.9393
H	6.4382	2.6106	3.3637
H	7.0791	3.7056	1.2976
H	5.7907	3.2649	-0.7916
H	3.9242	1.7178	-0.7601
X	1.6547	-0.3080	-0.9550
X	5.6184	1.4811	6.1217
0	1	S
1	2	S
1	3	S
3	4	D
3	19	S
4	5	S
4	9	S
5	6	D
5	20	S
6	7	S
6	21	S
7	8	D
7	22	S
8	9	S
8	23	S
9	10	D
10	11	S
10	14	S
11	12	S
11	13	S
14	15	S
14	19	D
15	16	D
15	24	S
16	17	S
16	25	S
17	18	D
17	26	S
18	19	S
18	27	S
28	0	S
29	12	S
