21
19	20
O	1.3941	0.5550	-0.2885
C	2.4053	-0.1433	0.0328
O	2.7991	-0.3515	1.2283
C	3.2150	-0.7921	-1.0803
C	2.8438	-0.6656	-2.4400
C	3.5974	-1.2608	-3.4716
C	4.7465	-1.9903	-3.1165
C	5.1279	-2.1434	-1.7784
C	4.3675	-1.5385	-0.7727
C	6.3467	-2.9088	-1.3892
O	7.0054	-2.6892	-0.3861
O	6.6524	-3.9235	-2.2377
C	3.2155	-1.1349	-4.9368
O	3.9440	-1.7761	-5.7685
O	2.2111	-0.4223	-5.2451
H	1.9562	-0.0847	-2.6957
H	5.3433	-2.4031	-3.9276
H	4.6661	-1.6368	0.2707
H	5.9814	-4.0556	-2.9332
X	1.7509	0.3996	0.8796
X	2.8571	-0.9677	-6.0697
0	1	S
1	2	S
1	3	S
3	4	D
3	8	S
4	5	S
4	15	S
5	6	D
5	12	S
6	7	S
6	16	S
7	8	D
7	9	S
8	17	S
9	10	D
9	11	S
11	18	S
12	13	S
12	14	S
19	0	S
20	13	S
