15
13	14
O	1.4109	-0.5411	0.8119
C	2.3631	-0.0721	0.1126
O	2.7285	-0.4904	-1.0304
C	3.1308	1.0901	0.6938
C	2.8015	1.6200	1.9462
C	3.5368	2.6866	2.4385
N	4.5666	3.2681	1.7825
C	4.8667	2.7421	0.5732
C	4.1950	1.6742	-0.0012
H	1.9814	1.1964	2.5182
H	3.3049	3.1131	3.4090
H	5.6924	3.2165	0.0529
H	4.4843	1.2925	-0.9756
X	5.0239	3.9615	2.1291
X	1.7531	-0.9964	-0.3496
0	1	S
1	2	S
1	3	S
3	4	D
3	8	S
4	5	S
4	9	S
5	6	S
5	10	S
6	7	S
7	8	D
7	11	S
8	12	S
6	13	S
14	0	S
