30
28	29
O	1.0202	-0.0450	-0.1079
C	2.2830	-0.0774	-0.0181
O	2.9875	-0.9533	0.5669
C	3.0445	1.0794	-0.7189
C	4.5720	1.0019	-0.5662
C	5.1175	2.4324	-0.5906
C	3.9205	3.3621	-0.8891
C	2.7025	2.5414	-0.3143
C	1.3425	3.0050	-0.8645
C	2.6036	2.6361	1.2338
C	4.1122	4.7251	-0.1885
C	4.0738	3.7292	-2.4159
O	5.1440	4.3411	-2.7358
O	3.1231	3.4240	-3.1853
H	2.8230	0.9574	-1.7894
H	5.0025	0.4100	-1.3825
H	4.8846	0.5232	0.3685
H	5.9392	2.4995	-1.3125
H	5.5559	2.6616	0.3886
H	1.2227	2.7936	-1.9297
H	1.2025	4.0798	-0.7121
H	0.5127	2.5001	-0.3593
H	3.5345	2.3411	1.7287
H	1.8095	1.9910	1.6253
H	2.3541	3.6527	1.5574
H	4.2557	4.6152	0.8924
H	3.2448	5.3736	-0.3500
H	4.9974	5.2677	-0.5386
X	1.8393	-1.1774	0.1641
X	4.4404	4.3239	-3.3916
0	1	S
1	2	S
1	3	S
3	4	S
3	7	S
3	14	S
4	5	S
4	15	S
4	16	S
5	6	S
5	17	S
5	18	S
6	7	S
6	10	S
6	11	S
7	8	S
7	9	S
8	19	S
8	20	S
8	21	S
9	22	S
9	23	S
9	24	S
10	25	S
10	26	S
10	27	S
11	12	S
11	13	S
28	0	S
29	12	S
