32
30	31
C	-0.7423	0.9976	0.4896
C	0.6434	1.0750	0.5261
C	1.4097	0.0242	0.0009
C	2.8920	0.0492	0.0264
C	3.6037	0.6810	1.0576
C	5.0072	0.7077	1.0775
C	5.7701	0.0806	0.0800
C	7.2521	0.1037	0.0987
C	7.9784	0.1316	1.2996
C	9.3646	0.1648	1.2611
N	10.0860	0.1580	0.1233
C	9.3868	0.1227	-1.0271
C	8.0006	0.1010	-1.0880
C	5.0575	-0.5639	-0.9422
C	3.6553	-0.5655	-0.9770
C	0.7033	-1.0560	-0.5482
C	-0.6842	-1.0396	-0.5507
N	-1.4242	-0.0368	-0.0400
H	-1.3559	1.7949	0.8990
H	1.1041	1.9584	0.9550
H	3.0785	1.1624	1.8797
H	5.4912	1.2409	1.8927
H	7.4837	0.1210	2.2644
H	9.9470	0.1974	2.1775
H	9.9839	0.1156	-1.9336
H	7.5242	0.0949	-2.0624
H	5.5813	-1.0902	-1.7373
H	3.1726	-1.0572	-1.8192
H	1.2131	-1.9179	-0.9638
H	-1.2502	-1.8642	-0.9751
X	10.9858	0.1761	0.1313
X	-2.3239	-0.0568	-0.0520
0	1	D
0	17	S
0	18	S
1	2	S
1	19	S
2	3	S
2	15	D
3	4	D
3	14	S
4	5	S
4	20	S
5	6	D
5	21	S
6	7	S
6	13	S
7	8	D
7	12	S
8	9	S
8	22	S
9	10	S
9	23	S
10	11	S
11	12	D
11	24	S
12	25	S
13	14	D
13	26	S
14	27	S
15	16	S
15	28	S
16	17	S
16	29	S
10	30	S
17	31	S
