21
19	20
C	2.4707	-0.0160	-0.0133
C	0.9741	0.0041	-0.0030
C	0.2727	1.2161	-0.0008
C	-1.1339	1.2550	0.0004
C	-1.8308	0.0268	-0.0012
C	-1.1544	-1.2130	0.0001
C	0.2532	-1.1970	-0.0009
C	-1.9003	-2.5400	0.0032
O	-1.1938	-3.6048	0.0035
O	-3.1727	-2.5204	0.0056
C	-1.8545	2.5954	0.0038
O	-3.1268	2.6005	0.0033
O	-1.1274	3.6464	0.0074
H	2.8863	0.9971	0.0019
H	2.8360	-0.5131	-0.9177
H	2.8498	-0.5450	0.8669
H	0.8138	2.1608	-0.0008
H	-2.9211	0.0359	-0.0032
H	0.7818	-2.1491	-0.0010
X	-2.5440	-3.5527	0.0054
X	-2.4798	3.6196	0.0063
0	1	S
0	13	S
0	14	S
0	15	S
1	2	D
1	6	S
2	3	S
2	16	S
3	4	D
3	10	S
4	5	S
4	17	S
5	6	D
5	7	S
6	18	S
7	8	S
7	9	S
10	11	S
10	12	S
19	8	S
20	11	S
