25
23	24
O	1.1657	0.4311	-0.5922
C	2.2004	-0.0014	0.0104
O	2.5954	0.3620	1.1623
C	3.0318	-1.0452	-0.7094
C	2.6359	-1.5469	-1.9558
C	3.3974	-2.5135	-2.6073
C	4.5766	-2.9837	-2.0233
C	5.0340	-2.4884	-0.7878
C	4.2317	-1.5260	-0.1454
C	6.3225	-2.9348	-0.2053
C	7.4218	-3.2408	-1.0200
C	8.6201	-3.6313	-0.4399
N	8.8143	-3.7392	0.8889
C	7.7553	-3.4336	1.6677
C	6.5157	-3.0429	1.1784
H	1.7204	-1.1728	-2.4115
H	3.0720	-2.8957	-3.5693
H	5.1362	-3.7496	-2.5525
H	4.5344	-1.1011	0.8112
H	7.3632	-3.1548	-2.0994
H	9.4828	-3.8660	-1.0561
H	7.9300	-3.5075	2.7367
H	5.7157	-2.8221	1.8791
X	9.6035	-4.0456	1.1942
X	1.2633	0.7298	0.1753
0	1	S
1	2	S
1	3	S
3	4	D
3	8	S
4	5	S
4	15	S
5	6	D
5	16	S
6	7	S
6	17	S
7	8	D
7	9	S
8	18	S
9	10	D
9	14	S
10	11	S
10	19	S
11	12	S
11	20	S
12	13	S
13	14	D
13	21	S
14	22	S
12	23	S
24	0	S
