18
16	17
N	1.0841	0.2280	0.1212
C	2.4952	0.1091	-0.0799
C	3.2253	1.3100	-0.1605
C	4.6275	1.3358	-0.3278
C	5.3254	2.6784	-0.4231
O	6.4666	2.7423	-0.9797
O	4.6959	3.6869	0.0411
C	5.2835	0.1012	-0.3872
N	6.7043	-0.0157	-0.4998
C	4.5535	-1.0993	-0.3086
C	3.1487	-1.1254	-0.1642
C	2.4472	-2.4679	-0.1061
O	3.1638	-3.4767	0.2055
O	1.2103	-2.5318	-0.3953
H	2.6952	2.2599	-0.0928
H	5.0859	-2.0493	-0.3574
X	5.8778	3.7410	-0.4985
X	1.8919	-3.5307	-0.0601
0	1	S
1	2	D
1	10	S
2	3	S
2	14	S
3	4	S
3	7	D
4	5	S
4	6	S
7	8	S
7	9	S
9	10	D
9	15	S
10	11	S
11	12	S
11	13	S
16	5	S
17	12	S
