20
18	19
N	2.3965	0.0878	-0.2634
C	0.9949	0.0223	-0.0628
C	0.2704	1.2304	-0.0600
C	-1.1331	1.2574	0.0091
C	-1.8929	2.5700	0.0375
O	-3.1656	2.5141	0.0916
O	-1.2154	3.6478	0.0123
C	-1.8045	0.0283	0.0401
C	-1.0960	-1.1811	0.0174
C	0.3122	-1.2117	-0.0342
C	1.0319	-2.5539	0.0103
O	0.3220	-3.6135	0.0069
O	2.3109	-2.5438	0.0823
H	2.8170	0.7998	0.3170
H	2.7782	-0.8594	-0.0727
H	0.8034	2.1770	-0.1215
H	-2.8911	0.0152	0.0792
H	-1.6463	-2.1196	0.0448
X	-2.4940	3.6084	0.0600
X	1.5987	-3.6110	0.0453
0	1	S
0	13	S
0	14	S
1	2	D
1	9	S
2	3	S
2	15	S
3	4	S
3	7	D
4	5	S
4	6	S
7	8	S
7	16	S
8	9	D
8	17	S
9	10	S
10	11	S
10	12	S
18	5	S
19	11	S
