18
16	17
O	2.9061	-0.5866	0.8695
C	2.2357	-0.0150	-0.0473
O	1.0021	0.2837	0.0437
C	2.9404	0.3262	-1.3140
C	2.5822	1.4417	-2.0742
F	1.6050	2.2696	-1.6682
C	3.2365	1.7562	-3.2746
F	2.7944	2.8255	-3.9565
C	4.2928	0.9794	-3.7566
C	4.9886	1.3136	-5.0325
O	5.4905	0.3575	-5.7057
O	5.0435	2.5382	-5.3773
C	4.6595	-0.1282	-2.9912
F	5.6839	-0.9160	-3.3591
C	3.9926	-0.4529	-1.8014
F	4.3892	-1.5605	-1.1521
X	1.6678	-0.2899	0.9734
X	5.5485	1.5825	-6.0592
0	1	S
1	2	S
1	3	S
3	4	D
3	14	S
4	5	S
4	6	S
6	7	S
6	8	D
8	9	S
8	12	S
9	10	S
9	11	S
12	13	S
12	14	D
14	15	S
16	0	S
17	10	S
