18
16	17
O	1.1283	-0.0307	0.0468
C	2.4109	-0.0126	0.0483
C	3.2021	-1.1909	0.0499
C	4.6215	-1.2121	0.0534
C	5.2899	0.0273	0.0536
C	4.5872	1.2476	0.0500
C	3.1689	1.1873	0.0484
C	5.3252	2.5835	0.0472
O	4.6430	3.6668	0.0445
O	6.6060	2.5714	0.0472
C	5.3975	-2.5266	0.0570
O	6.6768	-2.4787	0.0617
O	4.7458	-3.6293	0.0554
H	2.6851	-2.1511	0.0484
H	6.3782	0.0423	0.0562
H	2.6259	2.1331	0.0479
X	5.7536	3.7044	0.0455
X	5.8574	-3.6350	0.0596
0	1	S
1	2	D
1	6	S
2	3	S
2	13	S
3	4	D
3	10	S
4	5	S
4	14	S
5	6	D
5	7	S
6	15	S
7	8	S
7	9	S
10	11	S
10	12	S
16	8	S
17	11	S
