16
14	15
C	-2.3487	-0.0192	-0.0024
N	-1.5970	1.0997	0.0012
C	-0.2960	0.7133	0.0025
C	0.8957	1.4470	0.0023
C	2.0967	0.7309	0.0008
C	2.1114	-0.6727	0.0006
C	0.9259	-1.4136	0.0018
C	-0.2805	-0.7053	0.0022
N	-1.5725	-1.1208	0.0006
H	-3.4304	-0.0318	-0.0087
H	0.8475	2.5258	0.0016
H	3.0360	1.2763	-0.0013
H	3.0615	-1.1990	-0.0016
H	0.8993	-2.4929	0.0008
X	-1.9055	1.9452	0.0025
X	-1.8622	-1.9729	0.0014
0	1	S
0	8	S
0	9	S
1	2	S
2	3	D
2	7	S
3	4	S
3	10	S
4	5	D
4	11	S
5	6	S
5	12	S
6	7	D
6	13	S
7	8	S
1	14	S
8	15	S
