28
26	27
O	1.4395	0.1279	0.6527
C	2.4558	-0.2181	-0.0327
O	2.9429	-1.3927	-0.0858
C	3.1417	0.8580	-0.8548
C	2.6624	2.1739	-0.8638
C	3.2884	3.1666	-1.6314
C	4.4266	2.8932	-2.4125
C	4.9044	1.5709	-2.3901
C	4.2718	0.5728	-1.6315
C	5.0743	3.9528	-3.2291
C	5.1073	5.2934	-2.8026
C	5.6705	6.3062	-3.5919
C	6.2422	6.0193	-4.8373
C	6.2401	4.6837	-5.2609
C	5.6644	3.6729	-4.4746
C	6.8343	7.1183	-5.7004
O	7.3528	6.7743	-6.8105
O	6.7697	8.3096	-5.2554
H	1.7851	2.4240	-0.2699
H	2.8551	4.1631	-1.6188
H	5.7876	1.2934	-2.9592
H	4.6618	-0.4438	-1.6430
H	4.6918	5.5747	-1.8385
H	5.6611	7.3354	-3.2371
H	6.6823	4.4336	-6.2239
H	5.6657	2.6605	-4.8699
X	1.9298	-1.0732	0.6246
X	7.3332	7.9804	-6.3697
0	1	S
1	2	S
1	3	S
3	4	D
3	8	S
4	5	S
4	18	S
5	6	D
5	19	S
6	7	S
6	9	S
7	8	D
7	20	S
8	21	S
9	10	D
9	14	S
10	11	S
10	22	S
11	12	D
11	23	S
12	13	S
12	15	S
13	14	D
13	24	S
14	25	S
15	16	S
15	17	S
26	0	S
27	16	S
