24
22	23
O	0.9851	-0.0081	0.1540
C	2.2267	0.1561	-0.0322
O	2.8989	1.2164	0.1435
C	3.0009	-1.0602	-0.5975
C	2.3669	-2.3902	-0.1752
C	3.1439	-3.6061	-0.6842
C	4.6226	-3.5755	-0.2826
C	5.3881	-4.7990	-0.8460
O	4.7215	-5.8698	-0.9616
O	6.6188	-4.6263	-1.0905
C	5.2572	-2.2476	-0.7067
C	4.4807	-1.0297	-0.2013
H	2.9343	-0.9794	-1.6909
H	1.3378	-2.4563	-0.5498
H	2.3024	-2.4369	0.9199
H	3.0620	-3.6553	-1.7780
H	2.6630	-4.5117	-0.2955
H	4.6856	-3.6545	0.8118
H	5.3224	-2.2040	-1.8018
H	6.2862	-2.1829	-0.3315
H	4.9596	-0.1257	-0.5970
H	4.5682	-0.9749	0.8918
X	1.6268	1.0986	0.4058
X	5.9810	-5.7466	-1.2824
0	1	S
1	2	S
1	3	S
3	4	S
3	11	S
3	12	S
4	5	S
4	13	S
4	14	S
5	6	S
5	15	S
5	16	S
6	7	S
6	10	S
6	17	S
7	8	S
7	9	S
10	11	S
10	18	S
10	19	S
11	20	S
11	21	S
22	0	S
23	8	S
