22
20	21
O	1.2159	-0.2680	-0.5125
C	2.3808	-0.0539	-0.0131
O	2.8925	1.0994	0.1272
C	3.1604	-1.2980	0.3272
C	2.8061	-2.5261	-0.2629
O	1.7263	-2.6270	-1.1283
C	3.4997	-3.7348	-0.0175
O	3.0268	-4.8375	-0.6822
C	4.5875	-3.7859	0.8537
C	4.9314	-2.5569	1.4543
C	4.2386	-1.3486	1.2059
O	4.6742	-0.2506	1.9031
O	5.9860	-2.4520	2.3501
C	5.3747	-5.0354	1.1864
O	6.3424	-4.8605	2.0161
O	5.0820	-6.1605	0.6770
H	1.2801	-1.7357	-1.0669
H	2.2717	-4.4886	-1.1931
H	5.4525	-0.5870	2.3873
H	6.3519	-3.3798	2.4086
X	1.7801	0.9547	-0.2618
X	5.9847	-6.0414	1.4228
0	1	S
1	2	S
1	3	S
3	4	D
3	10	S
4	5	S
4	6	S
5	16	S
6	7	S
6	8	D
7	17	S
8	9	S
8	13	S
9	10	D
9	12	S
10	11	S
11	18	S
12	19	S
13	14	S
13	15	S
20	0	S
21	14	S
