30
28	29
O	1.2927	-0.3476	0.2781
C	2.3893	0.0020	-0.2645
O	2.8981	-0.5613	-1.2932
C	3.1648	1.1621	0.3443
C	2.6918	1.8692	1.4687
C	3.4238	2.9337	2.0308
C	4.6610	3.2692	1.4446
C	5.1909	2.5808	0.3398
C	4.4064	1.5447	-0.2048
C	6.5823	2.8908	-0.2325
C	7.3409	3.9868	0.5522
C	7.4538	1.6157	-0.1813
C	6.4764	3.3665	-1.6962
C	2.9343	3.7076	3.2479
O	3.6651	4.6708	3.6598
O	1.8351	3.3557	3.7875
H	1.7404	1.5823	1.9174
H	5.2052	4.0892	1.9061
H	4.7598	0.9870	-1.0706
H	7.4830	3.7022	1.6018
H	6.8062	4.9441	0.5275
H	8.3356	4.1634	0.1286
H	7.5328	1.2338	0.8436
H	8.4693	1.8152	-0.5425
H	7.0473	0.8096	-0.8020
H	5.8617	4.2706	-1.7771
H	6.0341	2.6053	-2.3483
H	7.4670	3.6022	-2.1031
X	1.5187	-0.7949	-0.4811
X	2.2419	4.0931	4.1490
0	1	S
1	2	S
1	3	S
3	4	D
3	8	S
4	5	S
4	16	S
5	6	D
5	13	S
6	7	S
6	17	S
7	8	D
7	9	S
8	18	S
9	10	S
9	11	S
9	12	S
10	19	S
10	20	S
10	21	S
11	22	S
11	23	S
11	24	S
12	25	S
12	26	S
12	27	S
13	14	S
13	15	S
28	0	S
29	14	S
