35
33	34
O	2.8460	0.9741	0.7768
C	2.4453	0.0753	-0.0326
O	1.4612	0.1906	-0.8318
C	3.2040	-1.2405	-0.0434
C	4.2981	-1.4473	0.8302
C	5.0110	-2.6539	0.8501
C	4.6310	-3.6636	-0.0185
C	5.1797	-4.9893	-0.2192
C	4.4651	-5.6336	-1.2510
C	3.3697	-4.7088	-1.7894
C	3.5552	-3.4687	-0.9098
C	2.8381	-2.2764	-0.9234
C	3.6302	-4.3719	-3.2629
C	1.9770	-5.3196	-1.6041
C	4.8035	-6.9175	-1.6681
C	5.8777	-7.5834	-1.0494
C	6.5714	-6.9279	-0.0045
C	6.2284	-5.6353	0.4145
C	6.2958	-8.9727	-1.5015
O	7.2789	-9.5123	-0.8981
O	5.6381	-9.5007	-2.4549
H	4.5887	-0.6409	1.5021
H	5.8452	-2.7793	1.5291
H	2.0042	-2.1293	-1.6049
H	4.6281	-3.9397	-3.4080
H	2.9012	-3.6467	-3.6421
H	3.5671	-5.2663	-3.8935
H	1.7755	-5.5597	-0.5532
H	1.8678	-6.2465	-2.1790
H	1.1925	-4.6305	-1.9384
H	4.2608	-7.4084	-2.4718
H	7.3996	-7.4460	0.4773
H	6.7836	-5.1586	1.2131
X	2.0236	1.1779	0.1828
X	6.8024	-10.0516	-1.6402
0	1	S
1	2	S
1	3	S
3	4	D
3	11	S
4	5	S
4	21	S
5	6	D
5	22	S
6	7	S
6	10	S
7	8	D
7	17	S
8	9	S
8	14	S
9	10	S
9	12	S
9	13	S
10	11	D
11	23	S
12	24	S
12	25	S
12	26	S
13	27	S
13	28	S
13	29	S
14	15	D
14	30	S
15	16	S
15	18	S
16	17	D
16	31	S
17	32	S
18	19	S
18	20	S
33	0	S
34	19	S
