26
24	25
O	2.0860	1.2083	1.7623
C	2.4294	0.4958	0.7721
O	2.0818	0.6107	-0.4419
C	3.3150	-0.7261	1.0980
O	4.7017	-0.3488	1.0273
C	5.5849	-1.1413	1.7066
C	5.3763	-2.4713	2.0728
C	6.3628	-3.1721	2.7853
C	7.5636	-2.5490	3.1258
C	7.7716	-1.2221	2.7511
C	6.7952	-0.5283	2.0324
O	8.5694	-3.1125	3.8651
C	8.7295	-4.5364	3.7263
C	9.9527	-5.0196	4.5373
O	11.0813	-4.5772	4.1719
O	9.6952	-5.8722	5.4417
H	3.1199	-1.5214	0.3686
H	3.0480	-1.0775	2.1018
H	4.4551	-2.9831	1.8183
H	6.1555	-4.1938	3.0841
H	8.7015	-0.7292	3.0200
H	6.9644	0.5046	1.7423
H	8.8948	-4.7906	2.6724
H	7.8429	-5.0590	4.1003
X	1.5028	1.1407	0.3654
X	10.8194	-5.6891	5.0277
0	1	S
1	2	S
1	3	S
3	4	S
3	16	S
3	17	S
4	5	S
5	6	D
5	10	S
6	7	S
6	18	S
7	8	D
7	19	S
8	9	S
8	11	S
9	10	D
9	20	S
10	21	S
11	12	S
12	13	S
12	22	S
12	23	S
13	14	S
13	15	S
24	0	S
25	14	S
