18
16	17
O	1.0211	-0.1249	-0.0051
C	2.3037	-0.1067	-0.0032
C	3.0950	-1.2843	-0.0008
C	4.5144	-1.3057	0.0021
C	5.2861	-2.6229	0.0055
O	6.5658	-2.5794	0.0075
O	4.6308	-3.7232	0.0064
C	5.1835	-0.0661	0.0016
C	4.4798	1.1542	-0.0015
C	5.2141	2.4926	-0.0034
O	4.5278	3.5740	-0.0056
O	6.4944	2.4852	-0.0031
C	3.0615	1.0928	-0.0033
H	2.5782	-2.2446	-0.0012
H	6.2719	-0.0508	0.0037
H	2.5179	2.0382	-0.0050
X	5.8927	-3.6583	0.0082
X	5.7913	3.5447	-0.0049
0	1	S
1	2	D
1	12	S
2	3	S
2	13	S
3	4	S
3	7	D
4	5	S
4	6	S
7	8	S
7	14	S
8	9	S
8	12	D
9	10	S
9	11	S
12	15	S
16	5	S
17	10	S
