32
30	31
O	1.2390	0.0860	-0.1800
C	2.4890	0.0152	0.0486
O	3.1485	0.8033	0.7988
C	3.2565	-1.1058	-0.6269
C	2.6070	-2.0194	-1.4703
C	3.3087	-3.0658	-2.0821
C	4.6830	-3.2264	-1.8701
C	5.3367	-2.3185	-1.0264
C	4.6344	-1.2689	-0.4202
C	5.4459	-4.3568	-2.4288
C	5.1656	-4.9709	-3.5902
C	5.9072	-6.1238	-4.1310
C	6.5420	-7.0672	-3.3136
C	7.1876	-8.1784	-3.8703
C	7.2098	-8.3833	-5.2581
C	6.5590	-7.4436	-6.0712
C	5.9147	-6.3313	-5.5163
C	7.9088	-9.5874	-5.8623
O	7.8811	-9.7017	-7.1286
O	8.4740	-10.3971	-5.0584
H	1.5365	-1.9145	-1.6391
H	2.7542	-3.7592	-2.7078
H	6.4007	-2.4147	-0.8289
H	5.1583	-0.5697	0.2297
H	6.2919	-4.6798	-1.8275
H	4.3477	-4.6194	-4.2135
H	6.5325	-6.9669	-2.2323
H	7.6738	-8.9038	-3.2199
H	6.5548	-7.5903	-7.1500
H	5.4213	-5.6304	-6.1841
X	1.9590	0.9240	0.6258
X	8.4184	-10.5205	-6.4188
0	1	S
1	2	S
1	3	S
3	4	D
3	8	S
4	5	S
4	20	S
5	6	D
5	21	S
6	7	S
6	9	S
7	8	D
7	22	S
8	23	S
9	10	D
9	24	S
10	11	S
10	25	S
11	12	D
11	16	S
12	13	S
12	26	S
13	14	D
13	27	S
14	15	S
14	17	S
15	16	D
15	28	S
16	29	S
17	18	S
17	19	S
30	0	S
31	18	S
