30
28	29
O	1.3222	0.6370	-0.4633
C	2.3666	0.0579	-0.0253
O	2.8202	0.1402	1.1600
C	3.1441	-0.7961	-1.0036
C	2.7187	-0.9319	-2.3347
C	3.4683	-1.6707	-3.2553
C	4.6432	-2.3040	-2.8493
C	5.0619	-2.2058	-1.5208
C	4.3201	-1.4523	-0.6070
C	5.4402	-3.0341	-3.7923
C	6.1449	-3.6225	-4.5654
C	7.0218	-4.3016	-5.4741
C	8.1756	-4.9269	-4.9973
C	9.0464	-5.5673	-5.8868
C	8.7805	-5.5958	-7.2660
C	7.6110	-4.9675	-7.7267
C	6.7388	-4.3247	-6.8401
C	9.7324	-6.2792	-8.2314
O	9.4201	-6.2646	-9.4649
O	10.7754	-6.8169	-7.7388
H	1.8001	-0.4356	-2.6459
H	3.1326	-1.7305	-4.2857
H	5.9709	-2.6981	-1.1890
H	4.6556	-1.3572	0.4250
H	8.4119	-4.9170	-3.9373
H	9.9487	-6.0480	-5.5118
H	7.3896	-4.9789	-8.7928
H	5.8475	-3.8410	-7.2283
X	1.6947	0.6773	0.7525
X	10.4499	-6.8553	-9.0016
0	1	S
1	2	S
1	3	S
3	4	D
3	8	S
4	5	S
4	20	S
5	6	D
5	21	S
6	7	S
6	9	S
7	8	D
7	22	S
8	23	S
9	10	A
10	11	S
11	12	D
11	16	S
12	13	S
12	24	S
13	14	D
13	25	S
14	15	S
14	17	S
15	16	D
15	26	S
16	27	S
17	18	S
17	19	S
28	0	S
29	18	S
