18
16	17
O	1.0244	-0.1631	-0.2577
C	2.3091	-0.0028	-0.2145
O	2.8524	1.0316	-0.7600
C	3.1604	-1.1536	0.3898
C	2.7535	-2.4896	0.0440
C	3.3933	-3.7101	0.4602
C	2.7294	-5.0317	-0.0268
O	2.5891	-6.0527	0.7459
O	2.2207	-5.0431	-1.2187
C	4.5702	-3.6137	1.2564
C	4.9106	-2.2479	1.6123
C	4.2777	-0.9973	1.2573
O	4.7223	0.1171	1.7392
O	5.3173	-4.5891	1.6481
H	1.8698	-2.5875	-0.5964
H	5.7929	-2.1504	2.2502
X	1.8309	1.0501	-0.5350
X	2.4348	-6.1703	-0.2652
0	1	S
1	2	S
1	3	S
3	4	D
3	11	S
4	5	S
4	14	S
5	6	S
5	9	D
6	7	S
6	8	S
9	10	S
9	13	S
10	11	D
10	15	S
11	12	S
16	0	S
17	7	S
