16
14	15
O	1.3309	0.5440	0.7762
C	2.2851	0.0251	0.1086
O	2.7415	-1.1506	0.2882
C	2.9144	0.8689	-0.9724
C	3.9691	0.3702	-1.7422
C	4.5526	1.1407	-2.7556
C	4.0969	2.4402	-3.0307
C	4.7086	3.2795	-4.1254
O	4.2383	4.4481	-4.3132
O	5.6615	2.7627	-4.7969
C	3.0459	2.9405	-2.2573
C	2.4625	2.1703	-1.2445
H	5.3681	0.7220	-3.3396
H	1.6435	2.5869	-0.6643
X	1.7846	-0.6460	0.9683
X	5.1951	3.9470	-4.9960
0	1	S
1	2	S
1	3	S
3	4	D
3	11	S
4	5	S
5	6	D
5	12	S
6	7	S
6	10	S
7	8	S
7	9	S
10	11	D
11	13	S
14	0	S
15	8	S
