18
16	17
O	1.5250	-1.2433	0.1400
C	2.1227	-0.1203	0.0761
O	1.8701	0.8839	0.8282
C	3.0092	0.1492	-1.1213
C	2.7007	1.3032	-1.8835
C	3.4158	1.6452	-3.0318
C	4.4684	0.8423	-3.4451
C	4.7894	-0.3009	-2.7126
C	4.0784	-0.6732	-1.5471
C	4.5553	-1.9195	-0.8244
O	4.8905	-2.9072	-1.5715
O	4.7816	-1.8462	0.4234
H	1.8704	1.9276	-1.5564
H	3.1433	2.5318	-3.5918
H	5.0429	1.0934	-4.3282
H	5.6182	-0.9319	-3.0299
X	1.4201	-0.3339	1.0251
X	4.9324	-2.9050	-0.2529
0	1	S
1	2	S
1	3	S
3	4	D
3	8	S
4	5	S
4	12	S
5	6	D
5	13	S
6	7	S
6	14	S
7	8	D
7	15	S
8	9	S
9	10	S
9	11	S
16	0	S
17	10	S
