26
24	25
C	1.1148	-0.0170	0.0796
C	0.3392	-1.1140	0.0851
C	-1.1329	-1.0888	0.0754
C	-1.8657	-0.0669	-0.5325
C	-3.2495	-0.1399	-0.5177
N	-3.9433	-1.1521	0.0420
C	-3.2188	-2.1386	0.6081
C	-1.8327	-2.1549	0.6447
C	2.5861	-0.0365	0.0941
C	3.3345	-1.0554	-0.4985
C	4.7177	-0.9713	-0.4637
N	5.3955	0.0483	0.1028
C	4.6551	1.0316	0.6542
C	3.2692	1.0375	0.6696
H	0.6687	0.9748	0.0930
H	0.7845	-2.1055	0.1265
H	-1.3845	0.7717	-1.0226
H	-3.8540	0.6379	-0.9759
H	-3.7987	-2.9465	1.0451
H	-1.3191	-2.9853	1.1176
H	2.8659	-1.8986	-0.9930
H	5.3352	-1.7454	-0.9106
H	5.2223	1.8448	1.0979
H	2.7418	1.8658	1.1306
X	-4.8431	-1.1684	0.0379
X	6.2952	0.0713	0.1124
0	1	D
0	8	S
0	14	S
1	2	S
1	15	S
2	3	D
2	7	S
3	4	S
3	16	S
4	5	S
4	17	S
5	6	S
6	7	D
6	18	S
7	19	S
8	9	D
8	13	S
9	10	S
9	20	S
10	11	S
10	21	S
11	12	S
12	13	D
12	22	S
13	23	S
5	24	S
11	25	S
