37
35	36
O	1.6701	0.7015	-0.6160
C	2.5758	-0.1290	-0.2882
O	2.9159	-1.1566	-0.9567
C	3.3114	0.1211	1.0147
C	2.9902	1.2148	1.8272
C	3.6706	1.4431	3.0295
C	4.7140	0.6036	3.4612
C	5.0283	-0.4932	2.6406
C	4.3366	-0.7322	1.4441
C	5.4757	0.8913	4.7021
C	6.0135	-0.1206	5.5081
C	6.7530	0.1870	6.6499
C	6.9695	1.5149	7.0195
C	6.4444	2.5689	6.2614
C	5.7037	2.2206	5.1128
C	6.6322	3.9928	6.6338
C	6.7120	4.9979	5.6511
C	6.8145	6.3535	5.9888
C	6.8694	6.7595	7.3254
C	6.8201	5.7650	8.3129
C	6.6989	4.4088	7.9738
C	6.9739	8.2272	7.6929
O	7.0432	8.5132	8.9314
O	6.9887	9.0677	6.7384
H	2.2027	1.8980	1.5130
H	3.3635	2.3022	3.6216
H	5.8356	-1.1706	2.9018
H	4.6050	-1.5869	0.8256
H	5.8568	-1.1680	5.2647
H	7.5679	1.7089	7.9051
H	5.2879	3.0231	4.5064
H	6.6873	4.7489	4.5934
H	6.8466	7.1050	5.2010
H	6.8617	6.0597	9.3598
H	6.6305	3.6891	8.7847
X	2.0361	-0.6492	-1.2253
X	7.2511	9.2595	8.2383
0	1	S
1	2	S
1	3	S
3	4	D
3	8	S
4	5	S
4	24	S
5	6	D
5	25	S
6	7	S
6	9	S
7	8	D
7	26	S
8	27	S
9	10	D
9	14	S
10	11	S
10	28	S
11	12	D
12	13	S
12	29	S
13	14	D
13	15	S
14	30	S
15	16	D
15	20	S
16	17	S
16	31	S
17	18	D
17	32	S
18	19	S
18	21	S
19	20	D
19	33	S
20	34	S
21	22	S
21	23	S
35	0	S
36	22	S
