17
15	16
O	1.4599	0.7961	-0.4493
C	2.3949	0.0779	0.0374
O	2.7796	0.1147	1.2514
C	3.0910	-0.8834	-0.8967
C	4.1254	-1.7012	-0.4332
C	4.7769	-2.6020	-1.2855
C	4.4141	-2.7163	-2.6372
C	5.1149	-3.6975	-3.5588
O	4.7315	-3.7427	-4.7735
O	6.0425	-4.4156	-3.0605
C	3.3778	-1.8920	-3.1044
C	2.7268	-0.9908	-2.2487
H	5.5758	-3.2233	-0.8893
H	3.0757	-1.9571	-4.1475
H	1.9251	-0.3650	-2.6345
X	1.8418	0.8417	0.7796
X	5.6690	-4.4733	-4.2875
0	1	S
1	2	S
1	3	S
3	4	D
3	11	S
4	5	S
5	6	D
5	12	S
6	7	S
6	10	S
7	8	S
7	9	S
10	11	D
10	13	S
11	14	S
15	0	S
16	8	S
