21
19	20
O	1.2585	0.4024	0.7399
C	2.1076	-0.0624	-0.1023
O	2.2839	-1.3138	-0.2797
C	2.9227	0.9330	-0.9229
C	2.5287	2.2889	-1.0219
C	3.2499	3.2510	-1.7746
C	4.4282	2.8156	-2.4316
C	4.8657	1.4710	-2.3501
C	4.0967	0.5473	-1.6066
P	6.4596	0.8488	-3.1858
O	7.2869	0.1737	-2.0812
O	6.0191	-0.1445	-4.2703
O	7.1775	2.0696	-3.7762
C	2.7447	4.6955	-1.8482
O	3.3833	5.5465	-2.5601
O	1.6834	5.0063	-1.1953
H	1.6277	2.6057	-0.4970
H	5.0310	3.5131	-3.0144
H	4.4523	-0.4795	-1.5665
X	1.4156	-0.7913	0.5534
X	2.3090	5.8133	-1.8760
0	1	S
1	2	S
1	3	S
3	4	D
3	8	S
4	5	S
4	16	S
5	6	D
5	13	S
6	7	S
6	17	S
7	8	D
7	9	S
8	18	S
9	10	D
9	11	S
9	12	S
13	14	S
13	15	S
19	0	S
20	14	S
