19
17	18
N	1.0245	0.0793	0.0659
C	2.5186	-0.0754	-0.0166
C	2.9514	-1.5440	-0.1836
C	2.5881	-2.4314	1.0124
C	3.0405	-3.8928	0.9430
O	3.1800	-4.3975	-0.2055
O	3.1773	-4.4555	2.0720
C	3.0384	0.7449	-1.2703
O	2.2168	0.8161	-2.2410
O	4.1812	1.2779	-1.1496
H	0.6318	-0.8365	0.2598
H	0.7724	0.2646	-0.9203
H	2.9532	0.3505	0.8958
H	4.0406	-1.5805	-0.3293
H	2.5151	-1.9582	-1.1038
H	1.4984	-2.4673	1.1410
H	3.0018	-1.9843	1.9249
X	3.3950	-5.0380	0.8886
X	3.4317	1.3656	-2.2190
0	1	S
0	10	S
0	11	S
1	2	S
1	7	S
1	12	S
2	3	S
2	13	S
2	14	S
3	4	S
3	15	S
3	16	S
4	5	S
4	6	S
7	8	S
7	9	S
17	5	S
18	8	S
