32
30	31
O	2.9442	-0.7514	-1.0275
C	2.2562	-0.1330	-0.1523
O	0.9908	-0.1939	-0.0250
C	3.0108	0.7515	0.8233
C	2.3325	1.4744	1.8162
C	3.0266	2.2894	2.7200
C	4.4218	2.3969	2.6624
C	5.1811	3.2982	3.5467
C	4.8239	3.6238	4.8013
C	5.5228	4.6127	5.6422
C	6.1946	5.7136	5.0955
C	6.7568	6.6947	5.9206
C	6.6554	6.6117	7.3170
C	7.2359	7.6958	8.2059
O	7.1035	7.5500	9.4640
O	7.8105	8.6751	7.6325
C	5.9848	5.5058	7.8612
C	5.4233	4.5214	7.0364
C	5.1024	1.6938	1.6605
C	4.4066	0.8783	0.7582
H	1.2476	1.4047	1.8739
H	2.4528	2.8500	3.4518
H	6.0811	3.7183	3.1058
H	3.9492	3.1688	5.2589
H	6.2677	5.8462	4.0201
H	7.2642	7.5489	5.4755
H	5.8895	5.4267	8.9433
H	4.8987	3.6909	7.5014
H	6.1821	1.7700	1.5668
H	4.9511	0.3352	-0.0126
X	1.6596	-0.8323	-0.9237
X	7.6950	8.5532	8.9089
0	1	S
1	2	S
1	3	S
3	4	D
3	19	S
4	5	S
4	20	S
5	6	D
5	21	S
6	7	S
6	18	S
7	8	D
7	22	S
8	9	S
8	23	S
9	10	D
9	17	S
10	11	S
10	24	S
11	12	D
11	25	S
12	13	S
12	16	S
13	14	S
13	15	S
16	17	D
16	26	S
17	27	S
18	19	D
18	28	S
19	29	S
30	0	S
31	14	S
