12
10	11
C	-0.0968	-1.4253	-0.0038
C	1.1144	-0.7721	0.0097
N	1.2364	0.5683	0.0103
C	0.0838	1.2560	-0.0037
N	-1.1507	0.7289	-0.0202
C	-1.2094	-0.6159	-0.0200
H	-0.1693	-2.5032	-0.0018
H	2.0498	-1.3236	0.0208
H	0.1566	2.3379	-0.0003
H	-2.2103	-1.0369	-0.0341
X	2.0374	0.9785	0.0195
X	-1.8895	1.2427	-0.0307
0	1	D
0	5	S
0	6	S
1	2	S
1	7	S
2	3	S
3	4	S
3	8	S
4	5	S
5	9	S
2	10	S
4	11	S
