10
8	9
O	1.8085	-0.3563	1.2033
C	2.2400	0.1701	0.1309
O	1.8118	1.2352	-0.4129
C	3.3806	-0.5428	-0.5694
C	4.5573	-1.2723	-1.2876
C	5.7029	-1.9807	-1.9848
O	6.8774	-1.6384	-1.6434
O	5.3905	-2.8559	-2.8502
X	1.3352	0.7321	0.6837
X	6.6077	-2.5426	-2.5376
0	1	S
1	2	S
1	3	S
3	4	S
4	5	S
5	6	S
5	7	S
8	0	S
9	6	S
