26
24	25
O	1.4650	0.8285	-0.1043
C	2.4500	0.0265	-0.0248
O	2.8616	-0.5346	1.0408
C	3.1942	-0.2870	-1.3062
C	2.8090	0.2909	-2.5246
C	3.4842	-0.0100	-3.7144
C	4.5692	-0.9007	-3.7291
C	4.9553	-1.4610	-2.5041
C	4.2864	-1.1651	-1.3143
C	5.2658	-1.2606	-4.9769
C	4.5840	-1.2310	-6.2018
C	5.1998	-1.5896	-7.4003
C	6.5409	-1.9958	-7.4208
C	7.2372	-2.0207	-6.2022
C	6.6104	-1.6609	-5.0013
C	7.2120	-2.3971	-8.7184
O	8.4337	-2.7516	-8.6589
O	6.5075	-2.3514	-9.7772
H	1.9675	0.9814	-2.5424
H	3.1495	0.4673	-4.6319
H	4.6129	-1.6276	-0.3861
H	4.6310	-1.5591	-8.3259
H	8.2811	-2.3291	-6.1946
H	7.1927	-1.6916	-4.0838
X	1.8750	0.2897	0.9950
X	7.7567	-2.7038	-9.7427
0	1	S
1	2	S
1	3	S
3	4	D
3	8	S
4	5	S
4	18	S
5	6	D
5	19	S
6	7	S
6	9	S
7	8	D
8	20	S
9	10	D
9	14	S
10	11	S
11	12	D
11	21	S
12	13	S
12	15	S
13	14	D
13	22	S
14	23	S
15	16	S
15	17	S
24	0	S
25	16	S
