18
16	17
O	1.1806	0.6561	-0.0509
C	2.2720	-0.0079	-0.0255
O	2.6982	-0.6551	0.9837
C	3.1091	-0.0123	-1.2964
C	2.6728	0.7058	-2.4237
C	3.4229	0.7307	-3.5989
C	4.6279	0.0326	-3.6694
C	5.1073	-0.7058	-2.5732
C	4.3310	-0.7167	-1.3919
C	6.4257	-1.4573	-2.6853
O	6.8328	-2.1218	-1.6788
O	7.0498	-1.3736	-3.7971
H	1.7335	1.2520	-2.3702
H	3.0708	1.2937	-4.4556
H	5.2130	0.0556	-4.5864
H	4.6858	-1.2824	-0.5295
X	1.5068	0.0869	0.8940
X	7.4715	-1.9944	-2.9255
0	1	S
1	2	S
1	3	S
3	4	D
3	8	S
4	5	S
4	12	S
5	6	D
5	13	S
6	7	S
6	14	S
7	8	D
7	9	S
8	15	S
9	10	S
9	11	S
16	0	S
17	10	S
