22
20	21
O	1.3110	-0.3829	0.5727
C	2.3849	-0.0060	0.0009
O	2.9003	-0.5424	-1.0303
C	3.0906	1.1607	0.6044
C	2.6398	1.8286	1.7253
C	3.5057	2.8960	2.1051
C	4.6041	3.0204	1.2729
S	4.5446	1.8408	0.0193
C	5.6987	3.9638	1.3917
C	6.9930	3.8230	0.9238
C	7.8335	4.9180	1.2826
C	7.1602	5.8856	2.0023
S	5.5166	5.4686	2.2109
C	7.8035	7.1225	2.5284
O	7.0772	7.9417	3.1736
O	9.0479	7.2618	2.2922
H	1.7333	1.5481	2.2476
H	3.3355	3.5262	2.9685
H	7.3399	2.9563	0.3760
H	8.8876	4.9971	1.0438
X	1.6673	-0.8992	-0.3558
X	8.4827	8.0669	2.8232
0	1	S
1	2	S
1	3	S
3	4	D
3	7	S
4	5	S
4	16	S
5	6	D
5	17	S
6	7	S
6	8	S
8	9	D
8	12	S
9	10	S
9	18	S
10	11	D
10	19	S
11	12	S
11	13	S
13	14	S
13	15	S
20	0	S
21	14	S
