35
33	34
C	1.0432	-1.6031	-0.9676
C	2.5581	-1.5279	-0.8657
C	3.0666	-1.8994	0.5307
C	4.5945	-1.8082	0.5877
C	5.1637	-2.1774	1.9625
C	6.6913	-2.0507	1.9850
O	7.2475	-1.2242	1.2543
N	7.1880	-2.8882	2.9082
N	8.6874	-2.9605	2.9840
C	9.2233	-3.7893	3.9338
O	8.6103	-4.5775	4.6583
C	10.7760	-3.6174	4.1304
C	11.2423	-2.2976	3.8657
C	12.5776	-1.9208	4.0002
C	13.4976	-2.8595	4.4164
C	13.0671	-4.1614	4.7000
C	11.7243	-4.6222	4.5890
O	11.5059	-5.8552	4.8853
H	0.7203	-1.3314	-1.9782
H	0.5659	-0.9138	-0.2640
H	0.6836	-2.6154	-0.7589
H	2.8813	-0.5113	-1.1191
H	2.9985	-2.2011	-1.6107
H	2.7437	-2.9161	0.7832
H	2.6271	-1.2241	1.2746
H	4.9000	-0.7882	0.3246
H	5.0293	-2.4718	-0.1700
H	4.8574	-3.2016	2.2101
H	4.7604	-1.5054	2.7297
H	10.5162	-1.5522	3.5461
H	12.8704	-0.9043	3.7756
H	14.5441	-2.6050	4.5254
H	13.8142	-4.8843	5.0284
X	7.3083	-3.2822	3.7084
X	9.4436	-3.1890	3.4151
0	1	S
0	18	S
0	19	S
0	20	S
1	2	S
1	21	S
1	22	S
2	3	S
2	23	S
2	24	S
3	4	S
3	25	S
3	26	S
4	5	S
4	27	S
4	28	S
5	6	D
5	7	S
7	8	S
8	9	S
9	10	D
9	11	S
11	12	D
11	16	S
12	13	S
12	29	S
13	14	D
13	30	S
14	15	S
14	31	S
15	16	D
15	32	S
16	17	S
7	33	S
8	34	S
