18
16	17
O	0.9674	0.1247	0.1681
C	2.2508	0.0211	0.0873
C	3.0816	1.2120	0.1018
C	4.5159	1.3602	-0.0254
O	5.0580	2.5262	0.0700
C	5.1963	0.1249	-0.2363
C	6.7274	-0.0460	-0.4595
O	7.3088	-1.0488	0.1165
O	7.3835	0.7078	-1.2699
C	4.4231	-1.0896	-0.2200
C	2.9934	-1.1841	-0.0499
C	2.4046	-2.6268	-0.0489
O	2.9164	-3.4799	-0.8798
O	1.5139	-3.0009	0.7990
H	2.5333	2.1473	0.2365
H	4.9691	-2.0237	-0.3526
X	7.9077	-0.1777	-0.6316
X	1.9512	-3.7378	-0.0481
0	1	S
1	2	D
1	10	S
2	3	S
2	14	S
3	4	S
3	5	D
5	6	S
5	9	S
6	7	S
6	8	S
9	10	D
9	15	S
10	11	S
11	12	S
11	13	S
16	7	S
17	12	S
