30
28	29
O	1.5405	-0.1558	-1.0008
C	2.4210	0.0266	-0.1019
O	2.7123	-0.8203	0.8032
C	3.1856	1.3575	-0.1075
C	2.4987	2.6034	-0.1253
C	0.9907	2.6684	-0.1399
C	3.2332	3.8271	-0.1222
C	2.5174	5.1671	-0.1398
C	4.6635	3.8249	-0.0948
C	5.3536	2.5784	-0.1056
C	4.6110	1.3547	-0.0971
C	5.3284	0.0151	-0.0770
C	6.8634	2.5018	-0.1100
C	5.4209	5.1616	-0.0650
O	6.3607	5.3416	-0.9035
O	5.0669	6.0318	0.8038
H	0.4838	1.7037	-0.1151
H	0.6495	3.1762	-1.0496
H	0.6362	3.2120	0.7416
H	1.4441	5.0787	-0.3057
H	2.8963	5.7949	-0.9518
H	2.6336	5.6691	0.8261
H	6.4125	0.0896	-0.1808
H	4.9904	-0.6112	-0.9099
H	5.1554	-0.4949	0.8753
H	7.3824	3.4566	-0.1599
H	7.2030	1.9308	-0.9823
H	7.2121	2.0111	0.8051
X	1.8140	-1.0085	-0.0999
X	6.0245	6.1986	-0.0481
0	1	S
1	2	S
1	3	S
3	4	D
3	10	S
4	5	S
4	6	S
5	16	S
5	17	S
5	18	S
6	7	S
6	8	D
7	19	S
7	20	S
7	21	S
8	9	S
8	13	S
9	10	D
9	12	S
10	11	S
11	22	S
11	23	S
11	24	S
12	25	S
12	26	S
12	27	S
13	14	S
13	15	S
28	0	S
29	14	S
