18
16	17
O	1.0061	-0.2533	-0.4620
C	2.2323	-0.1885	0.0077
O	2.7521	-1.2884	0.5044
C	3.0658	1.1993	-0.0243
C	2.7035	2.2623	0.9942
O	1.7908	2.0239	1.9091
C	3.4325	3.5846	0.9107
O	3.1038	4.5997	1.6760
C	4.5554	3.6977	-0.0963
C	4.9669	2.6099	-1.0667
C	4.1515	1.3365	-1.0739
O	4.3627	0.3750	-1.9531
O	5.9954	2.7748	-1.8654
C	5.3788	5.0882	-0.1407
O	5.1891	5.9580	-1.1084
O	6.2611	5.3891	0.7844
X	1.6165	-1.2181	0.0352
X	5.9918	6.1194	-0.1711
0	1	S
1	2	S
1	3	S
3	4	D
3	10	S
4	5	S
4	6	S
6	7	S
6	8	D
8	9	S
8	13	S
9	10	D
9	12	S
10	11	S
13	14	S
13	15	S
16	0	S
17	14	S
