10
8	9
O	0.9092	0.0480	0.0949
C	2.0910	0.4038	-0.2054
O	2.4191	1.3471	-0.9900
C	3.2220	-0.3757	0.4373
C	4.3832	-1.1784	1.1003
C	5.5129	-1.9580	1.7455
O	5.9352	-1.5300	2.8643
O	5.9411	-2.9722	1.1122
X	1.1961	1.0206	-0.7140
X	6.4067	-2.5748	2.2560
0	1	S
1	2	S
1	3	S
3	4	S
4	5	S
5	6	S
5	7	S
8	0	S
9	6	S
