22
20	21
O	2.9229	0.0197	-1.2362
C	2.3964	-0.0197	-0.0804
O	1.2910	-0.5816	0.2108
C	3.1255	0.6396	1.0404
C	2.6640	0.6733	2.3413
C	3.5621	1.3499	3.2186
C	4.7000	1.8070	2.5761
C	5.8393	2.4849	3.1634
C	7.1389	2.5215	2.6873
C	8.0245	3.2350	3.5471
C	7.3822	3.7451	4.6577
C	8.0712	4.5177	5.7304
O	7.3711	4.9421	6.7015
O	9.3263	4.6903	5.5905
S	5.7154	3.3672	4.6376
S	4.6292	1.4381	0.8950
H	1.7262	0.2196	2.6401
H	3.3871	1.4676	4.2802
H	7.4545	2.0341	1.7740
H	9.0867	3.3660	3.3754
X	1.8095	-0.5504	-0.9826
X	8.6258	5.1396	6.5939
0	1	S
1	2	S
1	3	S
3	4	D
3	15	S
4	5	S
4	16	S
5	6	D
5	17	S
6	7	S
6	15	S
7	8	D
7	14	S
8	9	S
8	18	S
9	10	D
9	19	S
10	11	S
10	14	S
11	12	S
11	13	S
20	0	S
21	12	S
