20
18	19
N	2.6826	0.0566	-1.4802
C	2.3149	0.0441	-0.0095
C	2.9179	-1.2195	0.7002
S	2.2914	-2.8203	-0.1360
C	4.4557	-1.3091	0.6204
C	2.4727	-1.2917	2.1713
C	2.7793	1.4220	0.6442
O	3.8724	1.9094	0.1999
O	2.0096	1.9114	1.5273
H	2.7787	-0.9482	-1.6779
H	3.6325	0.4412	-1.4672
H	1.2202	0.0106	0.0318
H	4.8229	-1.3698	-0.4104
H	4.8397	-2.1910	1.1506
H	4.9252	-0.4368	1.0864
H	1.3804	-1.2805	2.2708
H	2.8617	-0.4377	2.7379
H	2.8440	-2.1932	2.6744
X	2.5269	0.3016	-2.3321
X	2.6086	2.6094	0.6765
0	1	S
0	9	S
0	10	S
1	2	S
1	6	S
1	11	S
2	3	S
2	4	S
2	5	S
4	12	S
4	13	S
4	14	S
5	15	S
5	16	S
5	17	S
6	7	S
6	8	S
0	18	S
19	7	S
