38
36	37
F	2.4303	1.2500	0.1178
C	1.2278	0.6557	0.1130
C	1.1588	-0.7398	0.1105
F	2.2946	-1.4504	0.1035
C	-0.0705	-1.4043	0.0811
C	-0.1401	-2.9042	-0.0021
C	-0.1152	-3.5936	1.3358
C	-1.3029	-3.9339	1.9894
C	-1.2282	-4.5432	3.2304
N	-0.0678	-4.8349	3.8567
C	1.0686	-4.5033	3.2113
C	1.0977	-3.8921	1.9678
C	-1.2274	-0.6240	0.1157
F	-2.4294	-1.2189	0.1224
C	-1.1574	0.7717	0.1049
F	-2.2946	1.4829	0.0905
C	0.0711	1.4354	0.0706
C	0.1435	2.9349	-0.0287
C	0.1237	3.6408	1.3018
C	1.3145	3.9815	1.9487
C	1.2438	4.6027	3.1857
N	0.0857	4.9057	3.8102
C	-1.0530	4.5738	3.1671
C	-1.0865	3.9511	1.9296
H	0.6875	-3.2775	-0.6216
H	-1.0419	-3.2018	-0.5541
H	-2.2719	-3.7321	1.5420
H	-2.1281	-4.8210	3.7724
H	1.9881	-4.7449	3.7368
H	2.0501	-3.6549	1.5041
H	-0.6844	3.3019	-0.6502
H	1.0448	3.2243	-0.5862
H	2.2818	3.7700	1.5040
H	2.1457	4.8802	3.7242
H	-1.9712	4.8274	3.6902
H	-2.0406	3.7140	1.4698
X	-0.0526	-5.2309	4.6647
X	0.0734	5.3087	4.6148
0	1	S
1	2	D
1	16	S
2	3	S
2	4	S
4	5	S
4	12	D
5	6	S
5	24	S
5	25	S
6	7	D
6	11	S
7	8	S
7	26	S
8	9	S
8	27	S
9	10	S
10	11	D
10	28	S
11	29	S
12	13	S
12	14	S
14	15	S
14	16	D
16	17	S
17	18	S
17	30	S
17	31	S
18	19	D
18	23	S
19	20	S
19	32	S
20	21	S
20	33	S
21	22	S
22	23	D
22	34	S
23	35	S
9	36	S
21	37	S
