35
33	34
C	1.1044	1.1697	-1.3255
C	2.6189	1.0562	-1.2567
C	3.1265	-0.2893	-1.7845
C	4.6540	-0.3608	-1.6950
C	5.2224	-1.6842	-2.2174
C	6.7497	-1.7244	-2.0949
O	7.3065	-1.0948	-1.1872
N	7.2467	-2.5433	-3.0330
N	8.7472	-2.6133	-3.1105
C	9.2824	-3.4601	-4.0451
O	8.6701	-4.0853	-4.9127
C	10.8361	-3.6755	-3.8970
C	11.3031	-3.5640	-2.5567
C	12.6395	-3.7391	-2.1999
C	13.5596	-4.0421	-3.1825
C	13.1284	-4.1755	-4.5079
C	11.7834	-4.0144	-4.9497
O	11.5639	-4.1663	-6.2084
H	0.7824	2.1432	-0.9406
H	0.6229	0.3927	-0.7237
H	0.7487	1.0798	-2.3566
H	2.9384	1.1901	-0.2165
H	3.0635	1.8728	-1.8378
H	2.8069	-0.4223	-2.8249
H	2.6825	-1.1051	-1.2010
H	4.9559	-0.2175	-0.6502
H	5.0926	0.4678	-2.2652
H	4.9162	-1.8141	-3.2637
H	4.8172	-2.5234	-1.6379
H	10.5776	-3.3326	-1.7783
H	12.9333	-3.6328	-1.1644
H	14.6055	-4.1766	-2.9432
H	13.8738	-4.4171	-5.2645
X	6.6523	-2.9869	-3.5428
X	9.3238	-2.1493	-2.5985
0	1	S
0	18	S
0	19	S
0	20	S
1	2	S
1	21	S
1	22	S
2	3	S
2	23	S
2	24	S
3	4	S
3	25	S
3	26	S
4	5	S
4	27	S
4	28	S
5	6	D
5	7	S
7	8	S
8	9	S
9	10	D
9	11	S
11	12	D
11	16	S
12	13	S
12	29	S
13	14	D
13	30	S
14	15	S
14	31	S
15	16	D
15	32	S
16	17	S
7	33	S
8	34	S
