18
16	17
O	1.0645	0.1017	-0.3320
C	2.2895	0.1207	0.0051
O	2.8731	-0.7358	0.7392
C	3.1215	1.2604	-0.5033
C	2.8525	2.5901	-0.1094
Br	1.4596	2.9234	1.1804
C	3.6183	3.6638	-0.6174
Br	3.1014	5.4801	-0.2342
C	4.7355	3.4224	-1.4477
C	5.0352	2.0906	-1.8051
C	4.2033	1.0248	-1.3814
Br	4.4904	-0.7536	-2.0609
Br	6.6347	1.7130	-2.8087
C	5.5868	4.5585	-1.9470
O	5.6495	4.7306	-3.2035
O	6.1806	5.2621	-1.0705
X	1.6172	-0.7886	0.4064
X	6.2641	5.4657	-2.3447
0	1	S
1	2	S
1	3	S
3	4	D
3	10	S
4	5	S
4	6	S
6	7	S
6	8	D
8	9	S
8	13	S
9	10	D
9	12	S
10	11	S
13	14	S
13	15	S
16	0	S
17	14	S
