16
14	15
C	0.6747	1.2448	-0.2302
C	1.4093	-0.0360	0.2421
N	0.7405	-1.2785	-0.2014
C	-0.6669	-1.2200	0.2467
C	-1.3929	0.0544	-0.2499
N	-0.7348	1.2945	0.2144
H	0.7399	1.3137	-1.3257
H	1.2198	2.1139	0.1580
H	1.5023	-0.0135	1.3365
H	2.4338	-0.0038	-0.1489
H	-0.7312	-1.2682	1.3435
H	-1.2150	-2.0937	-0.1263
H	-2.4285	0.0225	0.1076
H	-1.4520	0.0314	-1.3474
X	1.1222	-1.9508	-0.6622
X	-1.1218	1.9587	0.6825
0	1	S
0	5	S
0	6	S
0	7	S
1	2	S
1	8	S
1	9	S
2	3	S
3	4	S
3	10	S
3	11	S
4	5	S
4	12	S
4	13	S
2	14	S
5	15	S
