10
7	8	9
C	0.6688	-0.8969	0.0009
N	1.1117	0.3749	-0.0013
N	-0.0031	1.1693	-0.0000
C	-1.0606	0.3355	0.0029
N	-0.6713	-0.9478	0.0030
H	1.3181	-1.7601	0.0013
H	-2.0884	0.6676	0.0052
X	1.9722	0.6386	-0.0032
X	-0.0348	2.0687	-0.0009
X	-1.1936	-1.6807	0.0042
0	1	S
0	4	S
0	5	S
1	2	S
2	3	S
3	4	S
3	6	S
1	7	S
2	8	S
4	9	S
