28
24	25	26	27
O	2.7344	0.8885	-0.9911
C	2.1690	-0.0831	-0.3982
O	0.9374	-0.4034	-0.5593
C	2.9942	-1.0351	0.4285
C	2.7221	-2.4136	0.2931
C	3.4623	-3.3596	0.9846
C	4.4416	-2.9002	1.8370
N	4.6896	-1.5976	2.0591
C	4.0108	-0.6563	1.3222
C	4.3483	0.7426	1.6888
N	3.2465	1.5377	1.9021
C	3.4323	2.8228	2.2513
C	4.6655	3.3734	2.5259
C	5.7737	2.5533	2.3959
C	5.6433	1.2195	1.9540
C	6.9070	0.4166	1.7971
O	7.7902	0.5782	2.7162
O	7.0940	-0.2526	0.7360
H	1.9249	-2.7262	-0.3787
H	3.2808	-4.4169	0.8550
H	5.0776	-3.5825	2.3886
H	2.5243	3.4115	2.3047
H	4.7638	4.4070	2.8258
H	6.7686	2.9336	2.6214
X	5.2933	-1.3623	2.6838
X	2.4094	1.2191	1.8137
X	1.5119	0.6750	-1.0565
X	7.9143	-0.2234	1.6720
0	1	S
1	2	S
1	3	S
3	4	D
3	8	S
4	5	S
4	18	S
5	6	D
5	19	S
6	7	S
6	20	S
7	8	S
8	9	S
9	10	S
9	14	S
10	11	S
11	12	D
11	21	S
12	13	S
12	22	S
13	14	D
13	23	S
14	15	S
15	16	S
15	17	S
7	24	S
10	25	S
26	0	S
27	16	S
