25
21	22	23	24
C	0.8028	1.1056	0.1665
C	0.4485	0.5452	-1.0482
N	-0.3275	-0.5592	-1.1395
C	-0.7429	-1.0907	0.0422
C	-1.6111	-2.3173	-0.0088
C	-3.0832	-2.0106	-0.0420
C	-3.6499	-1.3160	-1.1095
N	-4.9729	-1.0341	-1.1853
C	-5.7177	-1.4767	-0.1497
C	-5.1677	-2.1729	0.9127
N	-3.8461	-2.4532	0.9932
C	-0.3944	-0.5082	1.2576
N	0.3880	0.5933	1.3468
H	1.4315	1.9859	0.2236
H	0.7827	0.9720	-1.9869
H	-1.3845	-2.9567	0.8543
H	-1.3529	-2.9109	-0.8948
H	-3.0493	-0.9630	-1.9426
H	-6.7775	-1.2557	-0.1961
H	-5.7807	-2.5287	1.7328
H	-0.7344	-0.9166	2.2047
X	-0.5526	-0.9168	-1.9341
X	-5.3325	-0.5835	-1.8765
X	-3.4974	-2.9044	1.6895
X	0.6166	0.9598	2.1364
0	1	D
0	12	S
0	13	S
1	2	S
1	14	S
2	3	S
3	4	S
3	11	S
4	5	S
4	15	S
4	16	S
5	6	D
5	10	S
6	7	S
6	17	S
7	8	S
8	9	S
8	18	S
9	10	S
9	19	S
11	12	S
11	20	S
2	21	S
7	22	S
10	23	S
12	24	S
