30
26	27	28	29
C	1.0481	-0.0159	0.0219
C	0.5333	0.0450	1.4660
N	-0.9205	0.0339	1.6132
N	-1.2718	0.0425	3.0569
C	-1.9920	-1.0591	3.2244
N	-2.1805	-1.8197	2.2038
C	-1.5221	-1.1898	1.1931
C	2.5809	-0.0122	-0.0307
C	3.2023	-1.2175	0.6773
N	4.6497	-1.1869	0.6364
N	5.3384	-1.7613	-0.3680
C	6.5953	-1.5286	0.0176
N	6.7330	-0.8476	1.1923
C	5.4878	-0.6477	1.5632
H	0.6709	0.8477	-0.5395
H	0.6832	-0.9144	-0.4886
H	0.9237	0.9680	1.9170
H	0.9539	-0.7860	2.0445
H	-2.3542	-1.2433	4.2453
H	-1.4211	-1.6538	0.2216
H	2.9595	0.9174	0.4130
H	2.8982	-0.0030	-1.0814
H	2.8731	-2.1580	0.2216
H	2.9381	-1.2508	1.7374
H	7.4348	-1.8667	-0.5755
H	5.1451	-0.1432	2.4512
X	-1.0800	0.6196	3.7203
X	-2.6486	-2.5883	2.1983
X	5.0384	-2.1874	-1.1018
X	7.4781	-0.5884	1.6254
0	1	S
0	7	S
0	14	S
0	15	S
1	2	S
1	16	S
1	17	S
2	3	S
2	6	S
3	4	S
4	5	S
4	18	S
5	6	S
6	19	S
7	8	S
7	20	S
7	21	S
8	9	S
8	22	S
8	23	S
9	10	S
9	13	S
10	11	S
11	12	S
11	24	S
12	13	S
13	25	S
3	26	S
5	27	S
10	28	S
12	29	S
