16
13	14	15
C	1.0142	1.0816	-0.1614
C	-0.3147	1.2345	-0.0147
C	-1.2073	0.0877	0.0754
C	-0.7127	-1.1521	0.0309
C	0.7068	-1.3970	-0.1232
N	0.9242	-2.6677	-0.1344
N	-0.3876	-3.2621	0.0168
N	-1.2938	-2.3748	0.1032
C	1.5996	-0.2404	-0.2391
H	1.6769	1.9403	-0.2231
H	-0.7583	2.2247	0.0467
H	-2.2716	0.2609	0.1838
H	2.6559	-0.3960	-0.3989
X	1.7434	-3.0300	-0.2214
X	-0.6250	-4.1294	0.0547
X	-2.1670	-2.5717	0.1964
0	1	D
0	8	S
0	9	S
1	2	S
1	10	S
2	3	D
2	11	S
3	4	S
3	7	S
4	5	S
4	8	S
5	6	S
6	7	S
8	12	S
5	13	S
6	14	S
7	15	S
