30
26	27	28	29
C	1.1110	0.0806	0.0209
C	2.5910	-0.0133	0.1671
N	3.3538	0.9441	0.6307
N	4.7142	0.4602	0.6359
C	4.7036	-0.7650	0.1742
C	5.9093	-1.6304	0.0429
C	3.3497	-1.2294	-0.1366
C	3.0517	-2.0708	-1.2951
C	2.5400	-3.3474	-1.3304
C	2.1380	-4.2391	-0.2194
N	2.4101	-3.7891	-2.5944
N	2.8400	-2.8063	-3.4103
C	3.2155	-1.7787	-2.6318
C	3.7280	-0.5319	-3.2507
H	0.8010	1.1290	0.0109
H	0.6394	-0.4203	0.8711
H	0.7765	-0.3942	-0.9044
H	6.8135	-1.0161	0.0412
H	5.8769	-2.2117	-0.8815
H	5.9476	-2.3156	0.8947
H	2.3789	-3.7903	0.7489
H	2.6643	-5.1957	-0.2949
H	1.0592	-4.4185	-0.2594
H	3.6609	-0.5687	-4.3421
H	4.7759	-0.3847	-2.9705
H	3.1432	0.3238	-2.8975
X	3.0231	1.7418	0.8844
X	5.4726	0.8703	0.8942
X	2.0942	-4.5930	-2.8473
X	2.8707	-2.8316	-4.3094
0	1	S
0	14	S
0	15	S
0	16	S
1	2	S
1	6	S
2	3	S
3	4	S
4	5	S
4	6	S
5	17	S
5	18	S
5	19	S
6	7	S
7	8	D
7	12	S
8	9	S
8	10	S
9	20	S
9	21	S
9	22	S
10	11	S
11	12	S
12	13	S
13	23	S
13	24	S
13	25	S
2	26	S
3	27	S
10	28	S
11	29	S
