36
33	34	35
C	-1.0633	0.2860	-0.3364
C	-0.2002	-0.6895	-0.7760
N	0.8891	-0.6536	0.0702
C	2.0817	-1.4348	-0.0189
C	2.2430	-2.3507	-1.0699
C	3.4407	-3.0631	-1.2272
N	3.6141	-3.9381	-2.3420
C	2.7299	-4.1591	-3.3766
C	3.3498	-5.0390	-4.2326
N	4.5807	-5.3852	-3.7611
C	4.7133	-4.7191	-2.6355
C	4.4803	-2.8652	-0.3068
C	4.3409	-1.9469	0.7472
N	5.4493	-1.6671	1.6043
C	6.7293	-2.1737	1.5081
C	7.4708	-1.5358	2.4736
N	6.6905	-0.6849	3.1967
C	5.4912	-0.7888	2.6678
C	3.1279	-1.2548	0.9011
C	0.5962	0.3320	0.9902
N	-0.5624	0.9111	0.7658
H	-2.0167	0.5685	-0.7627
H	-0.2899	-1.3621	-1.6114
H	1.4384	-2.4977	-1.7793
H	1.7646	-3.6851	-3.4542
H	2.9691	-5.4359	-5.1643
H	5.5911	-4.7762	-2.0088
H	5.4106	-3.4068	-0.4237
H	7.0335	-2.9007	0.7721
H	8.5276	-1.6487	2.6791
H	4.6332	-0.2360	3.0217
H	3.0090	-0.5536	1.7177
H	1.2561	0.6105	1.7989
X	5.1869	-5.9439	-4.1221
X	6.9219	-0.1575	3.8883
X	-0.9258	1.5765	1.2508
0	1	D
0	20	S
0	21	S
1	2	S
1	22	S
2	3	S
2	19	S
3	4	D
3	18	S
4	5	S
4	23	S
5	6	S
5	11	D
6	7	S
6	10	S
7	8	D
7	24	S
8	9	S
8	25	S
9	10	S
10	26	S
11	12	S
11	27	S
12	13	S
12	18	D
13	14	S
13	17	S
14	15	D
14	28	S
15	16	S
15	29	S
16	17	S
17	30	S
18	31	S
19	20	S
19	32	S
9	33	S
16	34	S
20	35	S
