32
26	27	28	29	30	31
C	-0.5457	0.4432	1.0052
C	0.8306	0.5753	1.0266
C	1.5700	0.0305	-0.0225
C	3.0601	0.1916	-0.0082
N	3.6110	0.7660	1.0267
N	4.9498	0.9170	0.9889
C	5.5687	0.6041	-0.1610
C	7.0157	0.9889	-0.2322
C	7.6739	1.6224	0.8216
C	9.0030	1.9714	0.6531
N	9.7232	1.7389	-0.4701
C	9.0505	1.1210	-1.4718
C	7.7245	0.7319	-1.4035
N	5.0221	0.0173	-1.1919
N	3.7061	-0.2750	-1.0902
C	0.8918	-0.6243	-1.0478
C	-0.4891	-0.7047	-0.9749
N	-1.2399	-0.1884	0.0281
H	-1.1431	0.8631	1.8065
H	1.3449	1.0944	1.8279
H	7.1488	1.8424	1.7428
H	9.5371	2.4722	1.4531
H	9.6232	0.9412	-2.3746
H	7.2242	0.2460	-2.2341
H	1.4364	-1.0534	-1.8796
H	-1.0453	-1.2056	-1.7582
X	3.1033	1.0388	1.7179
X	5.4114	1.2144	1.7020
X	10.5876	1.9781	-0.5455
X	5.5165	-0.1719	-1.9197
X	3.2782	-0.7597	-1.7163
X	-2.1369	-0.2600	0.0442
0	1	D
0	17	S
0	18	S
1	2	S
1	19	S
2	3	S
2	15	D
3	4	S
3	14	S
4	5	S
5	6	S
6	7	S
6	13	S
7	8	D
7	12	S
8	9	S
8	20	S
9	10	S
9	21	S
10	11	S
11	12	D
11	22	S
12	23	S
13	14	S
15	16	S
15	24	S
16	17	S
16	25	S
4	26	S
5	27	S
10	28	S
13	29	S
14	30	S
17	31	S
