18
14	15	16	17
N	1.2084	0.0192	0.2376
C	2.5729	0.0178	0.1438
N	3.2083	1.1454	-0.0094
C	4.5868	1.1287	-0.1003
N	5.3612	0.0863	-0.1063
C	4.7674	-1.1206	-0.0063
N	5.2770	-2.3076	-0.0832
C	4.1506	-3.1168	0.0509
N	2.9925	-2.5248	0.1968
C	3.3522	-1.2086	0.1891
H	0.7629	0.8555	-0.1206
H	0.7423	-0.8506	-0.0010
H	5.0663	2.1197	-0.1792
H	4.2508	-4.2139	0.0225
X	2.7186	1.8994	-0.0505
X	6.2521	0.1934	-0.1753
X	6.1471	-2.5085	-0.1954
X	2.1836	-2.9108	0.2787
0	1	S
0	10	S
0	11	S
1	2	S
1	9	S
2	3	S
3	4	S
3	12	S
4	5	S
5	6	S
5	9	S
6	7	S
7	8	S
7	13	S
8	9	S
2	14	S
4	15	S
6	16	S
8	17	S
