21
18	19	20
O	2.6374	1.2082	0.4340
C	2.0898	0.1180	0.0645
O	0.8527	0.0348	-0.2861
C	2.9713	-1.0886	-0.2574
C	2.6643	-1.7902	-1.4447
C	3.4531	-2.8349	-1.9017
C	4.6269	-3.1352	-1.2236
C	5.0017	-2.4662	-0.0351
C	6.3644	-2.8572	0.4931
O	7.3352	-2.0338	0.3478
O	6.5256	-4.0919	0.7931
C	4.0977	-1.5042	0.5273
C	4.1859	-1.1079	1.9999
O	5.3177	-0.8347	2.5210
O	3.0988	-1.1777	2.6785
H	1.7806	-1.4966	-2.0064
H	3.1776	-3.3825	-2.7931
H	5.2857	-3.9160	-1.5983
X	1.3978	1.0652	0.3172
X	7.4453	-3.1673	0.9121
X	4.2552	-0.7966	3.1567
0	1	S
1	2	S
1	3	S
3	4	D
3	11	S
4	5	S
4	15	S
5	6	D
5	16	S
6	7	S
6	17	S
7	8	S
7	11	D
8	9	S
8	10	S
11	12	S
12	13	S
12	14	S
18	0	S
19	9	S
20	13	S
