33
30	31	32
O	1.3907	0.1375	0.5989
C	2.4402	-0.1657	-0.0642
O	2.8721	-1.3509	-0.2288
C	3.2165	0.9825	-0.6889
C	2.7865	2.3086	-0.4838
C	3.4919	3.4000	-0.9991
N	3.1109	4.7392	-0.8130
C	2.4536	5.0704	0.4401
C	2.8094	6.4942	0.8004
C	1.8315	7.4543	1.0672
C	2.2355	8.7342	1.4131
N	3.5255	9.1231	1.5174
C	4.4570	8.1784	1.2547
C	4.1538	6.8743	0.9050
C	4.5933	3.1496	-1.8225
C	5.0775	1.8488	-2.0486
C	4.3756	0.7728	-1.4656
C	6.3351	1.6468	-2.8770
O	6.7704	0.4618	-3.0345
O	6.8871	2.6905	-3.3650
H	1.8842	2.4571	0.1036
H	2.5912	5.0497	-1.6289
H	2.7896	4.4351	1.2704
H	1.3683	4.9507	0.3388
H	0.7767	7.2137	1.0052
H	1.5048	9.5097	1.6226
H	5.4904	8.5027	1.3323
H	4.9455	6.1576	0.6971
H	5.1278	3.9874	-2.2665
H	4.7396	-0.2437	-1.6175
X	3.7513	9.9631	1.7486
X	1.8274	-1.0720	0.4289
X	7.3283	1.4873	-3.5313
0	1	S
1	2	S
1	3	S
3	4	D
3	16	S
4	5	S
4	20	S
5	6	S
5	14	D
6	7	S
6	21	S
7	8	S
7	22	S
7	23	S
8	9	D
8	13	S
9	10	S
9	24	S
10	11	S
10	25	S
11	12	S
12	13	D
12	26	S
13	27	S
14	15	S
14	28	S
15	16	D
15	17	S
16	29	S
17	18	S
17	19	S
11	30	S
31	0	S
32	18	S
