19
15	16	17	18
O	1.1971	0.7001	0.7533
C	2.1857	0.0846	0.2597
O	2.5479	-1.1137	0.4419
C	3.0770	0.9100	-0.7082
C	4.1557	0.3314	-1.2780
C	4.9505	1.1387	-2.2085
N	5.9937	0.8984	-2.9312
N	6.2491	2.1456	-3.6363
N	5.3975	3.0386	-3.3261
C	4.5446	2.4999	-2.4285
C	3.4049	3.0818	-1.8117
C	2.6960	2.3013	-0.9761
H	4.4479	-0.6938	-1.0911
H	3.1332	4.1069	-2.0175
H	1.8115	2.6853	-0.4716
X	6.4149	0.1031	-2.9406
X	6.8947	2.3522	-4.2284
X	5.3983	3.8712	-3.6677
X	1.4971	-0.5531	1.0075
0	1	S
1	2	S
1	3	S
3	4	D
3	11	S
4	5	S
4	12	S
5	6	S
5	9	S
6	7	S
7	8	S
8	9	S
9	10	S
10	11	D
10	13	S
11	14	S
6	15	S
7	16	S
8	17	S
18	0	S
