19
16	17	18
N	1.1474	0.0017	-0.0133
C	2.5758	0.0222	-0.0106
C	3.2850	-1.1776	-0.0079
C	4.6913	-1.1830	-0.0044
C	5.3594	0.0617	-0.0049
C	4.6562	1.2867	-0.0084
C	3.2506	1.2417	-0.0107
C	5.3733	2.6257	-0.0099
O	4.6432	3.6723	-0.0107
O	6.6451	2.6302	-0.0105
C	5.4467	-2.5009	0.0000
O	6.7181	-2.4678	0.0042
O	4.7469	-3.5691	-0.0005
H	2.7555	-2.1279	-0.0083
H	6.4504	0.0776	-0.0025
H	2.6941	2.1765	-0.0127
X	0.2475	-0.0112	-0.0150
X	5.9398	3.6835	-0.0111
X	6.0434	-3.5420	0.0035
0	1	S
1	2	D
1	6	S
2	3	S
2	13	S
3	4	D
3	10	S
4	5	S
4	14	S
5	6	D
5	7	S
6	15	S
7	8	S
7	9	S
10	11	S
10	12	S
0	16	S
17	8	S
18	11	S
