19
15	16	17	18
O	2.7325	0.7060	1.1467
C	2.3749	-0.1666	0.3064
O	1.9228	-1.3312	0.5135
C	2.4806	0.2477	-1.1649
C	2.6446	1.6556	-1.4959
C	2.3461	2.1059	-2.7263
C	1.9038	1.1165	-3.7236
N	1.5155	1.2782	-4.9492
N	1.2548	-0.0589	-5.4299
N	1.4972	-0.9324	-4.5401
C	1.8899	-0.3010	-3.4075
C	2.1961	-0.7458	-2.1883
H	2.9767	2.3277	-0.7091
H	2.4132	3.1450	-3.0125
H	2.1843	-1.7970	-1.9285
X	1.4471	2.0818	-5.3486
X	0.9592	-0.3313	-6.2351
X	1.4089	-1.8166	-4.6828
X	2.2921	-0.4911	1.4587
0	1	S
1	2	S
1	3	S
3	4	S
3	11	S
4	5	D
4	12	S
5	6	S
5	13	S
6	7	S
6	10	S
7	8	S
8	9	S
9	10	S
10	11	D
11	14	S
7	15	S
8	16	S
9	17	S
18	0	S
