24
20	21	22	23
N	0.2061	-0.9210	-0.7501
N	0.2133	-0.9483	0.6258
C	-0.1240	0.2474	1.0505
N	-0.3672	1.0494	-0.0197
C	-0.1353	0.2902	-1.1235
C	-0.7607	2.4393	0.0072
C	-2.2762	2.6092	-0.0003
N	-2.6629	4.0005	0.0204
C	-2.8871	4.7688	1.1197
N	-3.2077	5.9835	0.7401
N	-3.2096	6.0051	-0.6363
C	-2.8916	4.8020	-1.0545
H	-0.1992	0.5566	2.0834
H	-0.2228	0.6402	-2.1424
H	-0.3054	2.9288	-0.8622
H	-0.3174	2.8929	0.9018
H	-2.7324	2.1253	0.8716
H	-2.7214	2.1537	-0.8930
H	-2.8068	4.4220	2.1404
H	-2.8164	4.4873	-2.0861
X	0.3956	-1.5924	-1.3187
X	0.4086	-1.6418	1.1652
X	-3.3884	6.6601	1.3054
X	-3.3910	6.6994	-1.1795
0	1	S
0	4	S
1	2	S
2	3	S
2	12	S
3	4	S
3	5	S
4	13	S
5	6	S
5	14	S
5	15	S
6	7	S
6	16	S
6	17	S
7	8	S
7	11	S
8	9	S
8	18	S
9	10	S
10	11	S
11	19	S
0	20	S
1	21	S
9	22	S
10	23	S
