35
32	33	34
O	2.7796	-1.2392	0.3529
C	2.3621	-0.1419	-0.0018
C	0.9002	0.1231	0.1899
C	0.2196	-0.6229	1.1638
C	-1.1449	-0.4180	1.3961
C	-1.8657	0.5333	0.6583
C	-1.1800	1.2565	-0.3327
C	0.1860	1.0521	-0.5738
C	-3.3432	0.7685	0.9191
O	-3.9331	1.6341	0.1957
O	-3.8914	0.0857	1.8433
N	3.1051	0.9018	-0.5273
C	4.5022	0.9313	-0.7757
C	5.3614	-0.1454	-0.5486
C	6.7512	-0.0342	-0.7627
C	7.2608	1.1963	-1.2316
C	6.4175	2.2900	-1.5108
C	5.0389	2.1334	-1.2692
C	6.9547	3.5986	-2.0633
O	6.1025	4.5091	-2.3379
O	8.2115	3.7188	-2.2293
C	7.6650	-1.2183	-0.4916
O	8.9119	-0.9935	-0.3519
O	7.1307	-2.3739	-0.4171
H	0.7526	-1.3687	1.7502
H	-1.6569	-1.0025	2.1587
H	-1.7285	1.9868	-0.9271
H	0.6573	1.6098	-1.3760
H	2.6391	1.7829	-0.6863
H	4.9877	-1.0997	-0.1902
H	8.3357	1.2965	-1.3902
H	4.3907	2.9824	-1.4775
X	-4.5107	0.9543	1.1252
X	7.3792	4.6326	-2.4999
X	8.3864	-2.1531	-0.2776
0	1	D
1	2	S
1	11	S
2	3	D
2	7	S
3	4	S
3	24	S
4	5	D
4	25	S
5	6	S
5	8	S
6	7	D
6	26	S
7	27	S
8	9	S
8	10	S
11	12	S
11	28	S
12	13	D
12	17	S
13	14	S
13	29	S
14	15	D
14	21	S
15	16	S
15	30	S
16	17	D
16	18	S
17	31	S
18	19	S
18	20	S
21	22	S
21	23	S
32	9	S
33	19	S
34	22	S
