23
18	19	20	21	22
O	1.4936	0.1550	0.6616
C	2.4681	-0.0925	-0.1208
O	2.8932	-1.2554	-0.4159
C	3.1762	1.0941	-0.7529
C	2.7676	2.4108	-0.4806
C	3.4055	3.5066	-1.0780
C	4.4679	3.3057	-1.9670
C	4.8964	2.0002	-2.2365
C	4.2557	0.9086	-1.6345
C	5.1347	4.4890	-2.6440
N	4.7828	5.7881	-2.4418
N	5.5908	6.5029	-3.2608
N	6.4112	5.6623	-3.9237
N	6.1522	4.3886	-3.5420
H	1.9350	2.5780	0.2004
H	3.0609	4.5128	-0.8531
H	5.7235	1.8242	-2.9194
H	4.5906	-0.1028	-1.8568
X	4.1510	6.1064	-1.8855
X	5.5837	7.3984	-3.3507
X	7.0326	5.9116	-4.5251
X	6.5654	3.6401	-3.8232
X	1.9089	-1.0296	0.3784
0	1	S
1	2	S
1	3	S
3	4	D
3	8	S
4	5	S
4	14	S
5	6	D
5	15	S
6	7	S
6	9	S
7	8	D
7	16	S
8	17	S
9	10	S
9	13	S
10	11	S
11	12	S
12	13	S
10	18	S
11	19	S
12	20	S
13	21	S
22	0	S
