35
32	33	34
O	3.3088	-0.2393	1.3447
C	2.7071	-0.1850	0.2228
O	1.6824	-0.8746	-0.0904
C	3.2612	0.7649	-0.8252
C	2.6588	0.8871	-2.0883
C	3.1844	1.7465	-3.0636
C	4.3370	2.5002	-2.8044
C	4.9654	3.3579	-3.8827
O	4.4133	4.6751	-3.8939
C	4.9357	5.5280	-4.8423
C	5.9616	5.2101	-5.7385
C	6.4427	6.1433	-6.6787
C	7.5632	5.7494	-7.6290
O	7.9890	6.6169	-8.4591
O	8.0158	4.5590	-7.5359
C	5.8523	7.4231	-6.7017
C	4.8087	7.7762	-5.8185
C	4.1573	9.1511	-5.8669
O	3.2209	9.3894	-5.0329
O	4.5742	9.9864	-6.7341
C	4.3729	6.8083	-4.8878
C	4.9266	2.4056	-1.5369
C	4.3980	1.5470	-0.5646
H	1.7734	0.2948	-2.3114
H	2.6976	1.8103	-4.0332
H	4.7994	2.8693	-4.8519
H	6.0461	3.4025	-3.6944
H	6.4283	4.2296	-5.7463
H	6.2089	8.1581	-7.4243
H	3.5740	7.0685	-4.1961
H	5.8140	2.9881	-1.3037
H	4.8788	1.4740	0.4091
X	2.2694	-0.9354	1.0507
X	8.4472	5.4387	-8.3787
X	3.6438	10.2350	-5.9051
0	1	S
1	2	S
1	3	S
3	4	D
3	22	S
4	5	S
4	23	S
5	6	D
5	24	S
6	7	S
6	21	S
7	8	S
7	25	S
7	26	S
8	9	S
9	10	D
9	20	S
10	11	S
10	27	S
11	12	S
11	15	D
12	13	S
12	14	S
15	16	S
15	28	S
16	17	S
16	20	D
17	18	S
17	19	S
20	29	S
21	22	D
21	30	S
22	31	S
32	0	S
33	13	S
34	18	S
