18
14	15	16	17
O	1.5316	1.0425	-0.3108
C	2.1009	-0.0722	-0.0577
O	1.8773	-1.1607	-0.6995
C	2.9378	-0.1721	1.2215
N	2.5670	-1.1519	2.1408
C	3.2553	-1.1948	3.2922
C	4.2793	-0.3213	3.5735
N	4.6692	0.6337	2.7176
C	3.9833	0.7163	1.5059
C	4.4723	1.7611	0.4984
O	4.7306	2.9339	0.9479
O	4.7527	1.3682	-0.6836
H	2.9502	-1.9596	3.9917
H	4.8256	-0.3667	4.5053
X	1.9018	-1.7403	1.9950
X	5.3463	1.1827	2.9415
X	1.4453	0.0061	-1.0597
X	4.8554	2.5797	-0.2910
0	1	S
1	2	S
1	3	S
3	4	S
3	8	S
4	5	S
5	6	D
5	12	S
6	7	S
6	13	S
7	8	S
8	9	S
9	10	S
9	11	S
4	14	S
7	15	S
16	0	S
17	10	S
