30
26	27	28	29
C	1.1411	0.3099	0.2654
C	2.6159	0.1396	0.3932
N	3.4191	1.0225	0.9240
N	4.7541	0.4745	0.9223
C	4.7043	-0.7158	0.3869
C	5.8736	-1.6321	0.2745
C	3.3445	-1.0610	-0.0203
C	2.9992	-1.8579	-1.1399
C	2.6611	-1.3236	-2.4588
C	3.2147	-0.0544	-3.0094
N	1.7868	-2.0789	-3.0679
N	1.4912	-3.2011	-2.2086
C	2.1798	-3.0643	-1.1072
C	2.1759	-4.0480	0.0109
H	0.8763	1.3653	0.3716
H	0.6472	-0.2619	1.0562
H	0.7857	-0.0431	-0.7046
H	6.7909	-1.0484	0.1643
H	5.7720	-2.3035	-0.5817
H	5.9416	-2.2252	1.1900
H	4.2445	0.0893	-2.6715
H	2.6030	0.7880	-2.6760
H	3.2057	-0.0909	-4.1022
H	1.2179	-4.5772	0.0345
H	2.3349	-3.5570	0.9691
H	2.9750	-4.7772	-0.1606
X	3.1231	1.8190	1.2204
X	5.5248	0.8320	1.2193
X	1.4654	-1.8751	-3.8835
X	0.9432	-3.9022	-2.3434
0	1	S
0	14	S
0	15	S
0	16	S
1	2	S
1	6	S
2	3	S
3	4	S
4	5	S
4	6	S
5	17	S
5	18	S
5	19	S
6	7	S
7	8	S
7	12	S
8	9	S
8	10	S
9	20	S
9	21	S
9	22	S
10	11	S
11	12	S
12	13	S
13	23	S
13	24	S
13	25	S
2	26	S
3	27	S
10	28	S
11	29	S
