26
21	22	23	24	25
O	2.0745	1.0694	-0.6735
C	2.2030	-0.0624	-0.1071
O	1.5416	-1.1062	-0.4553
C	3.0830	-0.2025	1.1192
N	2.8846	-1.2570	2.0444
C	3.6996	-1.0426	3.0580
C	3.8301	-1.8618	4.2592
C	2.9940	-2.9574	4.4561
C	3.1430	-3.7211	5.6101
C	4.1229	-3.3708	6.5310
C	4.9125	-2.2639	6.2584
N	4.7914	-1.5004	5.1521
N	4.4244	0.0899	2.8312
C	4.1112	0.6021	1.5958
C	4.8869	1.7328	1.0782
O	5.6184	2.2869	1.9723
O	4.8999	2.0218	-0.1501
H	2.2403	-3.1995	3.7107
H	2.4988	-4.5779	5.7783
H	4.2691	-3.9447	7.4376
H	5.6931	-1.9512	6.9449
X	3.7805	-0.2558	2.3059
X	2.3238	-1.9592	1.9955
X	5.3239	-0.7875	5.0169
X	1.5064	0.0485	-1.0779
X	5.5220	2.6586	0.6544
0	1	S
1	2	S
1	3	S
3	4	S
3	13	D
4	5	S
5	6	S
5	12	S
6	7	D
6	11	S
7	8	S
7	17	S
8	9	D
8	18	S
9	10	S
9	19	S
10	11	S
10	20	S
12	13	S
13	14	S
14	15	S
14	16	S
12	21	S
4	22	S
11	23	S
24	0	S
25	15	S
