18
14	15	16	17
N	0.9708	0.0805	0.2995
C	2.3686	0.0039	0.2163
N	3.0799	1.1624	0.1502
C	4.4346	1.0717	0.0653
N	5.2093	-0.0269	0.0136
C	4.4421	-1.1669	0.0520
C	3.0533	-1.2277	0.1441
N	2.7043	-2.5492	0.1135
C	3.8679	-3.2411	0.0445
N	4.9352	-2.4146	-0.0095
H	0.6439	0.8997	-0.1889
H	0.6011	-0.8241	0.0066
H	4.9637	2.0184	0.0348
H	3.9350	-4.3232	0.0311
X	2.6678	1.9624	0.1622
X	6.1074	-0.0028	-0.0389
X	1.8736	-2.8950	0.1346
X	5.8019	-2.6485	-0.0737
0	1	S
0	10	S
0	11	S
1	2	S
1	6	S
2	3	S
3	4	S
3	12	S
4	5	S
5	6	D
5	9	S
6	7	S
7	8	S
8	9	S
8	13	S
2	14	S
4	15	S
7	16	S
9	17	S
