30
26	27	28	29
C	0.9886	0.4181	0.1046
C	2.2361	0.1298	-0.6281
N	2.9564	1.1439	-1.2168
N	3.8909	0.6444	-1.8981
C	3.8380	-0.7291	-1.7776
C	4.6731	-1.5459	-2.7051
C	2.8328	-1.1347	-0.9833
C	2.5568	-2.5220	-0.5005
C	3.4495	-3.5564	-0.2358
C	4.9317	-3.5810	-0.1827
N	2.8188	-4.6877	0.1278
N	1.5259	-4.3803	0.2916
C	1.3569	-3.1210	-0.1446
C	-0.0377	-2.6334	-0.2574
H	0.9502	1.4687	0.4119
H	0.9004	-0.1864	1.0099
H	0.1236	0.2405	-0.5413
H	4.9475	-0.9535	-3.5864
H	4.1162	-2.4128	-3.0773
H	5.6021	-1.8766	-2.2402
H	5.3443	-2.5708	-0.1342
H	5.3299	-4.1050	-1.0569
H	5.2678	-4.1006	0.7210
H	-0.7354	-3.4691	-0.3676
H	-0.1426	-2.0016	-1.1443
H	-0.3158	-2.0726	0.6380
X	2.8305	2.0334	-1.1624
X	4.4667	1.1541	-2.3657
X	3.1921	-5.4988	0.2404
X	0.8899	-4.9190	0.6311
0	1	S
0	14	S
0	15	S
0	16	S
1	2	S
1	6	S
2	3	S
3	4	S
4	5	S
4	6	D
5	17	S
5	18	S
5	19	S
6	7	S
7	8	D
7	12	S
8	9	S
8	10	S
9	20	S
9	21	S
9	22	S
10	11	S
11	12	S
12	13	S
13	23	S
13	24	S
13	25	S
2	26	S
3	27	S
10	28	S
11	29	S
