34
30	31	32	33
O	2.6689	1.3734	-0.1207
C	2.2213	0.1844	-0.1464
O	1.0980	-0.1806	-0.6142
C	3.1086	-0.8928	0.4420
C	2.6786	-2.2184	0.5359
C	3.4725	-3.2076	1.1430
C	4.7716	-2.9540	1.6353
C	5.5225	-4.0398	2.3642
C	6.2770	-3.7270	3.5166
C	6.9156	-4.7052	4.3005
C	6.7860	-6.0670	4.0163
C	7.3987	-7.1199	4.9170
O	7.1680	-8.3333	4.6189
O	8.0862	-6.7114	5.9043
C	6.0579	-6.4199	2.8779
C	5.4698	-5.4273	2.0667
N	4.8242	-5.9355	0.8689
O	5.3073	-5.6097	-0.2223
O	3.8336	-6.6696	1.0235
C	5.1987	-1.6108	1.4732
N	6.5320	-1.1800	1.8482
O	7.4841	-1.6669	1.2326
O	6.6200	-0.3324	2.7516
C	4.3857	-0.5969	0.9230
H	1.6922	-2.4824	0.1534
H	3.0055	-4.1842	1.2393
H	6.3740	-2.7069	3.8767
H	7.4982	-4.3989	5.1700
H	5.9444	-7.4778	2.6380
H	4.7399	0.4337	0.8656
X	1.5183	1.0379	-0.6126
X	7.8840	-7.9539	5.6304
X	4.2908	-6.3554	-0.1207
X	7.6351	-0.8236	2.1584
0	1	S
1	2	S
1	3	S
3	4	D
3	23	S
4	5	S
4	24	S
5	6	D
5	25	S
6	7	S
6	19	S
7	8	D
7	15	S
8	9	S
8	26	S
9	10	D
9	27	S
10	11	S
10	14	S
11	12	S
11	13	S
14	15	D
14	28	S
15	16	S
16	17	S
16	18	S
19	20	S
19	23	D
20	21	S
20	22	S
23	29	S
30	0	S
31	12	S
32	17	S
33	21	S
