38
34	35	36	37
O	1.0981	0.3672	-0.0850
N	2.5003	0.1177	0.0147
C	3.2147	0.5313	1.2250
C	4.5769	0.1923	1.4380
C	5.2970	0.6102	2.5908
C	6.7642	0.2541	2.8323
O	7.4251	0.9628	3.6826
O	7.2965	-0.7429	2.2362
C	4.6072	1.3975	3.5475
C	3.2466	1.7502	3.4167
C	2.5572	2.5908	4.4953
O	1.3058	2.8471	4.4120
O	3.2650	3.0203	5.4805
C	2.5771	1.2966	2.2509
N	3.1496	-0.2937	-1.1970
O	3.8668	0.7207	-1.8997
C	2.8833	-1.5697	-1.8628
C	3.0720	-1.7386	-3.2693
C	2.7898	-2.9494	-3.9534
C	2.9710	-3.1095	-5.4648
O	2.7032	-4.2507	-5.9961
O	3.3832	-2.1250	-6.1737
C	2.3199	-4.0275	-3.1717
C	2.1445	-3.9442	-1.7643
C	1.6754	-5.1808	-0.9970
O	1.9257	-5.3051	0.2485
O	1.0662	-6.1043	-1.6588
C	2.4280	-2.7027	-1.1385
H	5.0691	-0.4032	0.6709
H	5.1537	1.7416	4.4236
H	1.5318	1.5599	2.1118
H	3.4228	-0.8819	-3.8386
H	2.0833	-4.9669	-3.6675
H	2.2963	-2.5877	-0.0643
X	7.9157	-0.0254	3.0218
X	2.0170	3.2495	5.3405
X	3.1131	-3.2350	-6.6497
X	1.3072	-6.1513	-0.3948
0	1	S
1	2	S
1	14	S
2	3	D
2	13	S
3	4	S
3	28	S
4	5	S
4	8	D
5	6	S
5	7	S
8	9	S
8	29	S
9	10	S
9	13	D
10	11	S
10	12	S
13	30	S
14	15	S
14	16	S
16	17	D
16	27	S
17	18	S
17	31	S
18	19	S
18	22	D
19	20	S
19	21	S
22	23	S
22	32	S
23	24	S
23	27	D
24	25	S
24	26	S
27	33	S
34	6	S
35	11	S
36	20	S
37	25	S
