18
14	15	16	17
O	1.1371	0.2296	0.0951
C	2.4192	0.2474	0.1142
O	3.1188	1.0525	0.8209
C	3.1500	-0.5970	-0.9310
N	2.7414	-0.4652	-2.2563
C	3.4544	-1.1263	-3.1803
C	4.5469	-1.8967	-2.8592
N	4.9654	-2.0650	-1.5947
C	4.2466	-1.4055	-0.5994
C	4.6490	-1.6762	0.8554
O	5.9019	-1.6689	1.1272
O	3.7410	-2.0613	1.6641
H	3.1192	-1.0122	-4.2020
H	5.1235	-2.4106	-3.6151
X	2.0360	0.0335	-2.5087
X	5.6801	-2.5852	-1.4255
X	1.8459	0.9099	0.9342
X	4.9639	-1.8880	1.9938
0	1	S
1	2	S
1	3	S
3	4	S
3	8	S
4	5	S
5	6	D
5	12	S
6	7	S
6	13	S
7	8	S
8	9	S
9	10	S
9	11	S
4	14	S
7	15	S
16	0	S
17	10	S
