30
25	26	27	28	29
C	-0.7620	0.2751	-0.9920
C	0.5935	0.5250	-1.0924
C	1.4308	0.1545	-0.0365
C	2.8629	0.4559	-0.1128
N	3.4252	0.9348	-1.2585
C	4.3581	1.7425	-0.8551
C	5.1293	2.5854	-1.7814
C	5.6977	3.7846	-1.3663
C	6.3425	4.5546	-2.3157
N	6.4597	4.2155	-3.6219
C	5.8887	3.0433	-3.9866
C	5.2151	2.2046	-3.1177
N	4.5534	1.8166	0.4613
N	3.6410	0.8171	1.0205
C	0.8605	-0.4633	1.0747
C	-0.5093	-0.6760	1.0789
N	-1.3399	-0.3216	0.0699
H	-1.4345	0.5681	-1.7930
H	1.0019	1.0229	-1.9662
H	5.6098	4.1167	-0.3379
H	6.7887	5.5061	-2.0431
H	5.9848	2.7862	-5.0366
H	4.7608	1.2831	-3.4586
H	1.4764	-0.7668	1.9138
H	-0.9902	-1.1501	1.9262
X	4.0960	0.4953	0.3138
X	3.2201	0.7529	-2.1157
X	6.8919	4.7387	-4.2131
X	5.1335	2.3789	0.8579
X	-2.2263	-0.4741	0.1032
0	1	D
0	16	S
0	17	S
1	2	S
1	18	S
2	3	S
2	14	D
3	4	S
3	13	S
4	5	S
5	6	S
5	12	S
6	7	D
6	11	S
7	8	S
7	19	S
8	9	S
8	20	S
9	10	S
10	11	D
10	21	S
11	22	S
12	13	S
14	15	S
14	23	S
15	16	S
15	24	S
13	25	S
4	26	S
9	27	S
12	28	S
16	29	S
