29
25	26	27	28
C	-0.6349	-0.6315	-0.6605
C	0.7358	-0.5999	-0.8508
C	1.5367	-0.0062	0.1296
C	2.9818	0.0239	-0.0398
N	3.7339	-0.4647	-1.0052
N	5.0410	-0.1736	-0.6700
C	4.9980	0.4768	0.4754
C	6.0767	1.0311	1.2798
C	7.4024	0.8730	0.8654
C	8.4107	1.4235	1.6378
N	8.1892	2.1085	2.7787
C	6.9056	2.2481	3.1670
C	5.8296	1.7336	2.4633
O	3.7182	0.6398	0.9392
C	0.9138	0.5367	1.2574
C	-0.4649	0.4561	1.3578
N	-1.2509	-0.1167	0.4237
H	-1.2928	-1.0861	-1.3963
H	1.1683	-1.0333	-1.7480
H	7.6503	0.3332	-0.0441
H	9.4539	1.3270	1.3496
H	6.7585	2.8050	4.0884
H	4.8234	1.8877	2.8381
H	1.4803	1.0123	2.0511
H	-0.9890	0.8604	2.2194
X	3.4246	-0.8993	-1.7301
X	5.7934	-0.3738	-1.1215
X	8.8665	2.4563	3.2586
X	-2.1450	-0.1537	0.5194
0	1	D
0	16	S
0	17	S
1	2	S
1	18	S
2	3	S
2	14	D
3	4	S
3	13	S
4	5	S
5	6	S
6	7	S
6	13	S
7	8	D
7	12	S
8	9	S
8	19	S
9	10	S
9	20	S
10	11	S
11	12	D
11	21	S
12	22	S
14	15	S
14	23	S
15	16	S
15	24	S
4	25	S
5	26	S
10	27	S
16	28	S
