38
32	33	34	35	36	37
O	3.1860	-1.0895	0.8582
C	3.0256	0.1520	0.5407
O	2.6267	1.0061	1.4076
C	3.3695	0.5793	-0.8909
C	2.9247	1.8044	-1.4703
C	3.2325	2.2042	-2.8028
N	2.8214	3.3660	-3.4276
N	1.9376	4.2778	-2.6311
C	1.4626	5.4347	-3.2018
C	1.7474	5.9379	-4.5014
C	1.2005	7.1576	-5.0054
C	1.5044	7.7073	-6.4069
O	0.9535	8.8212	-6.7564
O	2.2820	7.0815	-7.2099
C	0.3328	7.8856	-4.1521
C	-0.0002	7.4558	-2.8500
C	-0.9483	8.2849	-1.9762
O	-1.2529	7.8957	-0.7932
O	-1.4300	9.3798	-2.4585
C	0.5820	6.2376	-2.4136
C	4.0491	1.2894	-3.5366
C	4.5327	0.0544	-3.0199
C	5.4154	-0.9022	-3.8304
O	5.8103	-1.9963	-3.2746
O	5.7547	-0.6137	-5.0337
C	4.1646	-0.2703	-1.6963
H	2.3078	2.4772	-0.8758
H	2.4154	5.3518	-5.1296
H	-0.0953	8.8160	-4.5159
H	0.3482	5.8756	-1.4126
H	4.3102	1.5663	-4.5569
H	4.5094	-1.2106	-1.2735
X	3.1016	3.5142	-4.2700
X	1.6835	4.1254	-1.7813
X	2.7564	-0.1825	1.6613
X	1.7419	8.1368	-7.5020
X	-1.6905	8.9339	-1.2922
X	6.1062	-1.6508	-4.4647
0	1	S
1	2	S
1	3	S
3	4	D
3	25	S
4	5	S
4	26	S
5	6	S
5	20	D
6	7	S
7	8	S
8	9	D
8	19	S
9	10	S
9	27	S
10	11	S
10	14	D
11	12	S
11	13	S
14	15	S
14	28	S
15	16	S
15	19	D
16	17	S
16	18	S
19	29	S
20	21	S
20	30	S
21	22	S
21	25	D
22	23	S
22	24	S
25	31	S
6	32	S
7	33	S
34	0	S
35	12	S
36	17	S
37	23	S
