15
11	12	13	14
O	1.0236	-0.4307	0.3348
C	2.1884	0.0353	0.1449
O	2.9463	0.6139	0.9857
C	2.6508	0.0908	-1.2988
N	2.5958	1.2496	-2.1056
C	2.5469	0.6691	-3.1230
N	2.5562	-0.6197	-3.4722
C	2.6214	-1.0857	-2.2325
C	2.7352	-2.5461	-1.8889
O	3.4255	-2.8362	-0.8616
O	2.2199	-3.3740	-2.7111
X	2.5927	2.1431	-1.9974
X	2.5281	-1.0334	-4.2710
X	1.8226	-0.0086	1.2869
X	2.8260	-3.7109	-1.6149
0	1	S
1	2	S
1	3	S
3	4	S
3	7	S
4	5	S
5	6	S
6	7	S
7	8	S
8	9	S
8	10	S
4	11	S
6	12	S
13	0	S
14	9	S
