42
38	39	40	41
O	1.7663	-0.5806	2.8539
C	1.5502	-1.0777	1.6964
O	0.4192	-1.0476	1.1086
C	2.7223	-1.7398	0.9865
C	2.5808	-2.3452	-0.2769
C	3.6707	-2.9525	-0.9342
C	3.5038	-3.6107	-2.2966
O	4.5354	-4.1353	-2.8328
O	2.3456	-3.6058	-2.8337
C	4.9252	-2.9464	-0.2886
C	5.1199	-2.3767	0.9838
N	6.3771	-2.4384	1.6508
C	7.5906	-2.8926	1.1564
N	8.5118	-3.0962	2.1701
C	9.7746	-3.7429	2.0850
C	10.5178	-3.7814	0.8907
C	11.7835	-4.4089	0.8093
C	12.5821	-4.3859	-0.4878
O	13.7027	-4.9948	-0.5154
O	12.0926	-3.7430	-1.4744
C	12.2911	-5.0384	1.9657
C	11.5857	-5.0329	3.1818
C	12.1305	-5.6976	4.4393
O	11.4297	-5.6153	5.5049
O	13.2598	-6.2875	4.3731
C	10.3376	-4.3788	3.2117
C	7.8345	-2.7345	3.3364
C	6.5797	-2.3407	3.0308
C	3.9992	-1.7700	1.5886
H	1.6026	-2.3468	-0.7590
H	5.7514	-3.4384	-0.7983
H	7.7750	-3.1337	0.1191
H	10.1357	-3.2943	-0.0042
H	13.2602	-5.5363	1.9168
H	9.7899	-4.4064	4.1498
H	8.2964	-2.8014	4.3071
H	5.7958	-2.0420	3.7072
H	4.0941	-1.2933	2.5605
X	0.6260	-0.5556	2.2562
X	3.3722	-4.1296	-3.3706
X	13.2112	-4.3678	-1.5095
X	12.5597	-6.2213	5.4300
0	1	S
1	2	S
1	3	S
3	4	D
3	28	S
4	5	S
4	29	S
5	6	S
5	9	D
6	7	S
6	8	S
9	10	S
9	30	S
10	11	S
10	28	D
11	12	S
11	27	S
12	13	S
12	31	S
13	14	S
13	26	S
14	15	D
14	25	S
15	16	S
15	32	S
16	17	S
16	20	D
17	18	S
17	19	S
20	21	S
20	33	S
21	22	S
21	25	D
22	23	S
22	24	S
25	34	S
26	27	D
26	35	S
27	36	S
28	37	S
38	0	S
39	7	S
40	18	S
41	23	S
