24
19	20	21	22	23
O	1.5838	0.1581	-1.1191
C	2.1118	0.0002	0.0351
O	1.8286	-0.9853	0.8111
C	2.9500	1.1173	0.6075
C	2.5700	1.6818	1.8507
C	3.2483	2.7720	2.4482
C	2.6750	3.3913	3.6969
O	2.4799	4.6528	3.7293
O	2.2302	2.5949	4.6077
C	4.3887	3.2497	1.7849
C	5.3305	4.2969	2.4518
O	5.8279	5.2378	1.7271
O	5.6703	4.1307	3.6792
N	4.7752	2.7165	0.5589
C	4.0633	1.6759	-0.0339
C	4.5901	1.1182	-1.3875
O	4.8619	1.9466	-2.3371
O	4.8372	-0.1373	-1.4854
H	1.6947	1.2743	2.3546
X	5.4991	3.0509	0.1416
X	1.4454	-0.8879	-0.4200
X	2.2185	3.8844	4.6911
X	6.0557	5.1033	2.9654
X	4.9964	0.6881	-2.4315
0	1	S
1	2	S
1	3	S
3	4	D
3	14	S
4	5	S
4	18	S
5	6	S
5	9	D
6	7	S
6	8	S
9	10	S
9	13	S
10	11	S
10	12	S
13	14	S
14	15	S
15	16	S
15	17	S
13	19	S
20	0	S
21	7	S
22	11	S
23	16	S
