36
32	33	34	35
O	1.2505	0.0465	-0.1539
C	2.4664	-0.0738	-0.0463
C	3.2044	0.7192	0.9978
C	4.5157	1.1370	0.7901
C	5.2123	1.7983	1.8087
C	4.6093	2.1083	3.0493
C	5.5161	2.7007	4.1197
O	5.5037	2.1838	5.2825
O	6.3820	3.5604	3.7224
C	3.2443	1.7904	3.2279
C	2.4228	2.2293	4.4365
O	1.5293	1.4168	4.8477
O	2.5561	3.4282	4.8509
C	2.5669	1.0798	2.1978
C	3.2002	-1.0114	-0.9619
C	4.3371	-1.6976	-0.5262
C	5.0634	-2.4863	-1.4210
C	4.6617	-2.6631	-2.7643
C	5.6178	-3.4203	-3.6741
O	5.9174	-2.9086	-4.8020
O	6.2190	-4.4279	-3.1580
C	3.4401	-2.0760	-3.1809
C	2.7932	-2.3500	-4.5292
O	2.1737	-1.3732	-5.0793
O	2.7505	-3.5529	-4.9492
C	2.7415	-1.2345	-2.2681
H	5.0304	0.9436	-0.1475
H	6.2558	2.0675	1.6529
H	1.5223	0.8109	2.3528
H	4.6881	-1.6111	0.4970
H	5.9807	-2.9670	-1.0842
H	1.8213	-0.7565	-2.6052
X	6.2307	3.1675	4.9632
X	1.7767	2.5745	5.3870
X	6.3718	-4.0175	-4.3916
X	2.2826	-2.5663	-5.5934
0	1	D
1	2	S
1	14	S
2	3	D
2	13	S
3	4	S
3	26	S
4	5	D
4	27	S
5	6	S
5	9	S
6	7	S
6	8	S
9	10	S
9	13	D
10	11	S
10	12	S
13	28	S
14	15	D
14	25	S
15	16	S
15	29	S
16	17	D
16	30	S
17	18	S
17	21	S
18	19	S
18	20	S
21	22	S
21	25	D
22	23	S
22	24	S
25	31	S
32	7	S
33	11	S
34	19	S
35	23	S
