18
14	15	16	17
N	0.2117	1.3395	-0.0277
C	1.5620	1.0246	-0.1251
C	2.5621	1.9177	0.0022
N	2.6826	3.2815	0.0879
C	3.9687	3.4438	0.1604
N	4.7684	2.3067	0.2424
C	3.9105	1.3605	0.1280
N	4.1361	0.0697	0.1411
C	3.0885	-0.6577	-0.2431
N	1.8588	-0.2898	-0.3916
H	-0.2260	0.5204	-0.4491
H	0.0262	1.2189	0.9664
H	4.4527	4.4405	0.1547
H	3.3712	-1.6915	-0.4829
X	2.0559	3.9275	0.0950
X	5.6564	2.2044	0.3476
X	4.9275	-0.2805	0.3881
X	1.2557	-0.9016	-0.6599
0	1	S
0	10	S
0	11	S
1	2	D
1	9	S
2	3	S
2	6	S
3	4	S
4	5	S
4	12	S
5	6	S
6	7	S
7	8	S
8	9	S
8	13	S
3	14	S
5	15	S
7	16	S
9	17	S
