38
34	35	36	37
O	2.9018	0.6916	0.9488
C	2.2980	0.0535	0.0296
O	1.1147	-0.4092	0.1045
C	3.0735	-0.1932	-1.3122
C	4.4973	0.4282	-1.3081
C	5.2450	0.1606	-2.6404
C	6.6591	0.8410	-2.5632
O	7.6142	0.1461	-2.0889
O	6.7561	2.0354	-2.9842
C	4.4050	0.7633	-3.7979
C	2.9848	0.1488	-3.8565
C	2.2066	0.8278	-5.0376
O	2.3088	0.2890	-6.1868
O	1.5359	1.8741	-4.7710
C	2.2812	0.4114	-2.4979
C	3.1340	-1.3827	-4.0429
C	3.9292	-2.0341	-2.8814
C	4.0838	-3.5891	-3.0370
O	3.5712	-4.1278	-4.0688
O	4.7118	-4.2034	-2.1182
C	3.1982	-1.7226	-1.5477
C	5.3349	-1.3789	-2.8298
H	5.0770	0.0210	-0.4671
H	4.4298	1.5094	-1.1288
H	4.9302	0.6035	-4.7499
H	4.3246	1.8524	-3.6806
H	1.2646	-0.0033	-2.5379
H	2.1569	1.4905	-2.3351
H	3.6383	-1.6007	-4.9950
H	2.1375	-1.8394	-4.1197
H	3.7315	-2.1761	-0.7009
H	2.2062	-2.1917	-1.5585
H	5.8858	-1.6064	-3.7527
H	5.9231	-1.8241	-2.0152
X	1.7050	0.2421	1.0556
X	7.7391	1.3607	-2.5042
X	1.6114	1.3471	-5.9410
X	4.2019	-4.7773	-3.1559
0	1	S
1	2	S
3	1	S
3	4	S
3	14	S
3	20	S
4	5	S
4	22	S
4	23	S
5	6	S
5	9	S
5	21	S
6	7	S
6	8	S
9	10	S
9	24	S
9	25	S
10	11	S
10	14	S
10	15	S
11	12	S
11	13	S
14	26	S
14	27	S
15	16	S
15	28	S
15	29	S
16	17	S
16	20	S
16	21	S
17	18	S
17	19	S
20	30	S
20	31	S
21	32	S
21	33	S
34	0	S
35	7	S
36	12	S
37	18	S
