36
24	25	26	27	28	29	30	31	32	33	34	35
C	1.3732	-0.2077	-0.1580
C	0.4831	-1.2959	-0.1379
C	1.0171	-2.7209	-0.1053
N	2.3381	-3.0501	-0.0932
N	2.3676	-4.4051	-0.0854
N	1.1055	-4.8778	-0.0837
N	0.2379	-3.8370	-0.0897
C	-0.9026	-1.0580	-0.1585
C	-1.3991	0.2560	-0.2079
C	-2.9004	0.5056	-0.2532
N	-3.8471	-0.4728	-0.2433
N	-5.0334	0.1784	-0.3202
N	-4.8099	1.5064	-0.3650
N	-3.4757	1.7380	-0.3164
C	-0.5009	1.3363	-0.2270
C	0.8859	1.1100	-0.2036
C	1.8537	2.2846	-0.2372
N	1.4787	3.5925	-0.2862
N	2.6368	4.2951	-0.3139
N	3.6774	3.4395	-0.2771
N	3.2103	2.1686	-0.2246
H	2.4471	-0.3872	-0.1442
H	-1.5952	-1.8981	-0.1443
H	-0.8819	2.3558	-0.2659
X	3.0428	-2.4903	-0.0909
X	3.1108	-4.9128	-0.0819
X	0.8785	-5.7487	-0.0793
X	-0.6611	-3.8781	-0.0845
X	-3.7164	-1.3620	-0.1959
X	-5.8446	-0.2110	-0.3387
X	-5.4493	2.1375	-0.4188
X	-3.0615	2.5370	-0.3244
X	0.6417	3.9230	-0.2978
X	2.7044	5.1918	-0.3510
X	4.5450	3.6785	-0.2861
X	3.6958	1.4116	-0.1891
0	1	D
0	15	S
0	21	S
1	2	S
1	7	S
2	3	S
2	6	S
3	4	S
4	5	S
5	6	S
7	8	D
7	22	S
8	9	S
8	14	S
9	10	S
9	13	S
10	11	S
11	12	S
12	13	S
14	15	D
14	23	S
15	16	S
16	17	S
16	20	S
17	18	S
18	19	S
19	20	S
3	24	S
4	25	S
5	26	S
6	27	S
10	28	S
11	29	S
12	30	S
13	31	S
17	32	S
18	33	S
19	34	S
20	35	S
