31
23	24	25	26	27	28	29	30
C	0.9647	-0.0460	-0.0559
C	0.3595	0.1295	-1.4455
C	-1.1180	0.1049	-1.3949
N	-1.8639	1.2084	-1.1908
N	-3.1374	0.7533	-1.2471
N	-3.1284	-0.5847	-1.4508
N	-1.8472	-1.0183	-1.5402
O	2.4020	0.0191	-0.0256
C	2.9746	1.2495	-0.5007
C	2.5413	2.4831	0.2850
C	3.1332	3.7182	-0.2667
N	2.8716	4.1739	-1.5075
N	3.5668	5.3337	-1.5827
N	4.2179	5.5437	-0.4175
N	3.9745	4.5119	0.4283
H	0.7027	-1.0393	0.3294
H	0.5553	0.6665	0.6685
H	0.7295	-0.6593	-2.1115
H	0.6739	1.0759	-1.8981
H	2.7798	1.3452	-1.5741
H	4.0622	1.1301	-0.4108
H	2.8227	2.3599	1.3367
H	1.4507	2.5996	0.2767
X	-1.5789	2.0504	-1.0501
X	-3.8754	1.2614	-1.1623
X	-3.8600	-1.1048	-1.5165
X	-1.5494	-1.8581	-1.6668
X	2.3542	3.7931	-2.1378
X	3.5922	5.8806	-2.2970
X	4.7328	6.2586	-0.2336
X	4.2968	4.3836	1.2588
0	1	S
0	7	S
0	15	S
0	16	S
1	2	S
1	17	S
1	18	S
2	3	S
2	6	S
3	4	S
4	5	S
5	6	S
7	8	S
8	9	S
8	19	S
8	20	S
9	10	S
9	21	S
9	22	S
10	11	S
10	14	S
11	12	S
12	13	S
13	14	S
3	23	S
4	24	S
5	25	S
6	26	S
11	27	S
12	28	S
13	29	S
14	30	S
