10
6	7	8	9
C	-1.1216	-0.0056	-0.0515
N	-0.3886	1.0961	-0.0932
N	0.9089	0.6345	0.0365
N	0.9108	-0.6415	0.0337
N	-0.3861	-1.1055	-0.0949
H	-0.5934	-1.8689	0.5393
X	-0.4861	-1.9446	0.2148
X	-0.6927	1.9381	-0.1855
X	1.6680	1.1117	0.1141
X	1.6714	-1.1170	0.1074
0	1	S
0	4	S
1	2	S
2	3	S
3	4	S
4	5	S
4	6	S
1	7	S
2	8	S
3	9	S
