35
31	32	33	34
O	2.6205	-1.5235	-0.8755
C	2.0544	-0.3995	-0.6329
O	0.8649	-0.2895	-0.1852
C	2.8582	0.8708	-0.8648
C	2.2623	2.1404	-0.7045
C	3.0120	3.3200	-0.8210
O	2.4781	4.5916	-0.6650
C	1.5710	4.8874	0.3493
C	1.4859	4.0976	1.5109
C	0.5255	4.3503	2.4847
C	-0.2794	5.4755	2.3749
C	-0.1449	6.3738	1.2945
C	-0.9235	7.6778	1.4059
O	-0.2942	8.7773	1.2598
O	-2.1152	7.5988	1.8789
C	0.7509	6.0490	0.2275
C	0.7567	6.8767	-1.0455
O	-0.3716	7.0927	-1.6079
O	1.8809	7.2416	-1.5311
C	4.3646	3.2399	-1.1996
C	4.9967	1.9950	-1.4155
C	6.4608	1.9090	-1.8336
O	6.9617	0.7513	-2.0466
O	7.1220	2.9938	-1.9490
C	4.2198	0.8258	-1.2284
H	1.2014	2.1946	-0.4671
H	2.1457	3.2478	1.6550
H	0.4172	3.6791	3.3284
H	-1.0142	5.6946	3.1462
H	4.9346	4.1588	-1.3295
H	4.6942	-0.1466	-1.3755
X	1.4203	-1.4017	-0.4499
X	-1.5370	8.7054	1.4937
X	0.7613	7.5308	-2.0515
X	7.6128	1.8413	-2.1626
0	1	S
1	2	S
1	3	S
3	4	D
3	24	S
4	5	S
4	25	S
5	6	S
5	19	D
6	7	S
7	8	D
7	15	S
8	9	S
8	26	S
9	10	D
9	27	S
10	11	S
10	28	S
11	12	S
11	15	D
12	13	S
12	14	S
15	16	S
16	17	S
16	18	S
19	20	S
19	29	S
20	21	S
20	24	D
21	22	S
21	23	S
24	30	S
31	0	S
32	13	S
33	17	S
34	22	S
