26
22	23	24	25
C	-0.6098	1.1105	0.2490
C	0.7787	1.2130	0.2307
C	1.5658	0.0967	-0.0650
N	2.9176	0.0698	-0.1205
N	3.5740	1.3602	0.1419
C	4.9240	1.3480	0.0567
C	5.7157	0.2340	-0.2331
C	7.1019	0.3531	-0.2951
N	7.7961	1.4980	-0.0902
C	7.0123	2.5649	0.1907
C	5.6205	2.5388	0.2720
C	0.8615	-1.0809	-0.3234
C	-0.5319	-1.0914	-0.2827
N	-1.3113	-0.0214	-0.0017
H	-1.2035	1.9866	0.4774
H	1.2625	2.1601	0.4442
H	5.2377	-0.7236	-0.4093
H	7.6996	-0.5204	-0.5245
H	7.5404	3.4948	0.3589
H	5.0623	3.4390	0.5011
H	1.4154	-1.9830	-0.5570
H	-1.0662	-2.0109	-0.4877
X	3.3285	-0.7086	-0.3083
X	3.1623	2.1334	0.3482
X	8.6937	1.5454	-0.1364
X	-2.2103	-0.0590	0.0167
0	1	D
0	13	S
0	14	S
1	2	S
1	15	S
2	3	S
2	11	D
3	4	S
4	5	S
5	6	D
5	10	S
6	7	S
6	16	S
7	8	S
7	17	S
8	9	S
9	10	D
9	18	S
10	19	S
11	12	S
11	20	S
12	13	S
12	21	S
3	22	S
4	23	S
8	24	S
13	25	S
