36
32	33	34	35
C	-2.8360	2.3536	1.0573
N	-3.5314	2.9781	2.0473
C	-4.5451	2.2134	2.2497
N	-4.6511	1.1137	1.5138
N	-3.4394	1.1250	0.6562
C	-3.8340	1.1075	-0.7515
C	-2.6633	1.1112	-1.7415
C	-3.1598	1.1425	-3.1939
C	-3.9964	2.3800	-3.5570
C	-3.2957	3.7157	-3.2937
C	-2.0219	3.8525	-4.1230
N	-1.3261	5.1006	-3.8960
C	-0.7240	5.5160	-2.7497
N	-0.0989	6.6518	-2.9760
C	-0.3544	6.8846	-4.2968
N	-1.0949	5.9538	-4.9092
H	-1.9584	2.8098	0.6225
H	-5.3607	2.3881	2.9637
H	-4.5000	1.9559	-0.9533
H	-4.4217	0.1991	-0.9424
H	-2.0537	0.2113	-1.5934
H	-1.9971	1.9620	-1.5661
H	-3.7599	0.2453	-3.3895
H	-2.2950	1.0743	-3.8634
H	-4.9448	2.3641	-3.0071
H	-4.2715	2.3199	-4.6163
H	-3.0758	3.8270	-2.2262
H	-3.9837	4.5348	-3.5393
H	-2.2653	3.7906	-5.1907
H	-1.3012	3.0608	-3.8989
H	-0.7683	4.9723	-1.8164
H	0.0125	7.7486	-4.8279
X	-3.3555	3.7459	2.4826
X	-5.3375	0.5350	1.5772
X	0.3757	7.1385	-2.3861
X	-1.3637	5.9128	-5.7671
0	1	S
0	4	S
0	16	S
1	2	S
2	3	S
2	17	S
3	4	S
4	5	S
5	6	S
5	18	S
5	19	S
6	7	S
6	20	S
6	21	S
7	8	S
7	22	S
7	23	S
8	9	S
8	24	S
8	25	S
9	10	S
9	26	S
9	27	S
10	11	S
10	28	S
10	29	S
11	12	S
11	15	S
12	13	S
12	30	S
13	14	S
14	15	S
14	31	S
1	32	S
3	33	S
13	34	S
15	35	S
