28
24	25	26	27
O	2.7171	0.8115	0.8053
C	2.3259	-0.0048	-0.0863
O	1.3459	0.1818	-0.8788
C	3.0783	-1.3082	-0.2255
C	2.6998	-2.2470	-1.1872
C	3.4098	-3.4284	-1.2825
N	4.4574	-3.7497	-0.4945
C	4.8375	-2.8496	0.4583
C	5.9711	-3.2501	1.3393
C	6.6213	-4.4847	1.2118
C	7.6625	-4.8369	2.0880
C	8.3767	-6.1651	1.9842
O	9.2972	-6.3922	2.8350
O	8.0143	-6.9600	1.0620
C	8.0179	-3.9149	3.0743
C	7.3410	-2.7121	3.1383
N	6.3395	-2.3589	2.3049
C	4.1691	-1.6265	0.6019
H	1.8596	-2.0486	-1.8451
H	3.1429	-4.1782	-2.0198
H	6.3204	-5.1870	0.4376
H	8.8118	-4.1448	3.7776
H	7.5929	-1.9739	3.8923
H	4.4821	-0.9150	1.3631
X	4.8860	-4.5340	-0.6003
X	5.9332	-1.5603	2.3897
X	1.7285	1.0301	0.0242
X	8.9437	-7.2195	1.9018
0	1	S
1	2	S
1	3	S
3	4	D
3	17	S
4	5	S
4	18	S
5	6	S
5	19	S
6	7	S
7	8	S
7	17	D
8	9	D
8	16	S
9	10	S
9	20	S
10	11	S
10	14	D
11	12	S
11	13	S
14	15	S
14	21	S
15	16	S
15	22	S
17	23	S
6	24	S
16	25	S
26	0	S
27	12	S
