23
20	21	22
O	2.6423	0.1141	1.3406
C	2.2577	0.0501	0.1306
O	1.2696	0.6719	-0.3723
C	3.0448	-0.8561	-0.7940
C	2.6969	-0.9859	-2.1472
C	3.4093	-1.8386	-2.9955
C	4.4775	-2.5949	-2.5032
C	5.1677	-3.5436	-3.3644
C	5.4056	-3.5815	-4.7258
N	6.0705	-4.7251	-5.0894
C	6.2301	-5.3936	-3.9714
N	5.7094	-4.7216	-2.9069
C	4.8441	-2.4535	-1.1581
C	4.1373	-1.5933	-0.3156
H	1.8498	-0.4204	-2.5322
H	3.0959	-1.9205	-4.0322
H	5.1298	-2.8376	-5.4619
H	6.7035	-6.3596	-3.8676
H	5.6833	-3.0006	-0.7407
H	4.4272	-1.4941	0.7295
X	5.7277	-4.4361	-3.7602
X	6.3485	-4.9865	-5.9045
X	1.6343	0.7678	0.8629
0	1	S
1	2	S
1	3	S
3	4	D
3	13	S
4	5	S
4	14	S
5	6	D
5	15	S
6	7	S
6	12	S
7	8	D
7	11	S
8	9	S
8	16	S
9	10	S
10	11	S
10	17	S
12	13	D
12	18	S
13	19	S
11	20	S
9	21	S
22	0	S
