37
32	33	34	35	36
O	1.8194	-1.4450	-1.4236
C	1.4405	-0.2495	-1.1736
O	0.2396	0.0315	-0.8156
C	2.4552	0.8904	-1.2646
C	2.1839	2.1204	-0.6347
C	3.0711	3.2126	-0.7048
C	2.7366	4.5083	0.0328
O	3.2162	5.6129	-0.4020
O	1.9326	4.4502	1.0331
C	4.2705	3.0460	-1.4529
C	4.6483	1.8151	-2.0612
C	6.0187	1.6069	-2.7230
C	7.2369	2.1459	-2.1601
C	7.3560	3.0103	-0.9089
O	8.0491	4.0879	-1.0068
O	6.9112	2.5562	0.1967
C	8.5123	1.8594	-2.7453
C	8.6912	1.0244	-3.8548
C	10.0774	0.7075	-4.4093
O	10.1723	-0.0411	-5.4451
O	11.1030	1.2012	-3.8233
C	7.5165	0.5148	-4.4176
C	6.1990	0.8081	-3.9235
C	5.0761	0.2474	-4.7990
O	5.2162	-0.9482	-5.2516
O	4.1385	1.0289	-5.1770
C	3.6962	0.7591	-1.9486
H	1.2617	2.2303	-0.0657
H	4.9404	3.9017	-1.5123
H	9.3975	2.2954	-2.2861
H	7.6027	-0.1284	-5.2944
H	3.9153	-0.2071	-2.4001
X	0.6440	-1.1442	-1.1022
X	2.4739	5.5259	0.6121
X	7.4497	3.6903	0.0754
X	11.1673	0.4583	-4.8453
X	4.1956	-0.1923	-5.4855
0	1	S
1	2	S
1	3	S
3	4	D
3	26	S
4	5	S
4	27	S
5	6	S
5	9	D
6	7	S
6	8	S
9	10	S
9	28	S
10	11	S
10	26	D
11	12	D
11	22	S
12	13	S
12	16	S
13	14	S
13	15	S
16	17	D
16	29	S
17	18	S
17	21	S
18	19	S
18	20	S
21	22	D
21	30	S
22	23	S
23	24	S
23	25	S
26	31	S
32	0	S
33	7	S
34	14	S
35	19	S
36	24	S
