51
45	46	47	48	49	50
C	1.7190	-0.1648	-0.4779
C	2.8970	0.4962	0.2325
N	3.4209	-0.3609	1.3248
C	2.6733	-0.7141	2.4244
O	1.4900	-0.4018	2.5494
C	3.3295	-1.4975	3.5190
C	4.6427	-1.9720	3.4747
C	5.1852	-2.6568	4.5819
C	6.6218	-3.0440	4.5499
O	7.3978	-2.4002	3.8514
N	6.9876	-4.1054	5.3375
C	8.3726	-4.5989	5.4830
C	9.2665	-3.5462	6.1237
C	8.4607	-5.9085	6.3384
O	7.3391	-6.3460	6.7370
O	9.6172	-6.3957	6.5005
C	4.4214	-2.8552	5.7438
C	3.1098	-2.3873	5.7952
C	2.2861	-2.4322	7.0315
O	1.4038	-1.5814	7.1800
N	2.5431	-3.4192	7.9499
C	1.8165	-3.5589	9.2301
C	0.3246	-3.8003	9.0125
C	2.3479	-4.7336	10.1179
O	3.2991	-5.3895	9.6013
O	1.7822	-4.8855	11.2406
C	2.5678	-1.7339	4.6761
C	4.0007	0.9067	-0.8056
O	3.6080	1.2498	-1.9584
O	5.1859	0.8586	-0.3505
H	0.8906	-0.3656	0.2076
H	2.0180	-1.1212	-0.9198
H	1.3185	0.4708	-1.2738
H	2.5535	1.4245	0.7066
H	5.2716	-1.8108	2.6016
H	6.3199	-4.7209	5.7941
H	8.8864	-3.2536	7.1097
H	9.3156	-2.6401	5.5116
H	10.2920	-3.9065	6.2503
H	4.8757	-3.3054	6.6218
H	3.2967	-4.0958	7.8605
H	1.9648	-2.6233	9.7832
H	-0.1446	-2.9696	8.4775
H	-0.2105	-3.9080	9.9610
H	1.5406	-1.3725	4.7239
X	2.5211	-0.3410	1.3181
X	6.2319	-3.7896	5.7105
X	3.3233	-2.9980	7.7954
X	8.5282	-6.9116	6.9936
X	2.7553	-5.6341	10.7985
X	4.8444	1.2205	-1.5991
0	1	S
0	30	S
0	31	S
0	32	S
1	2	S
1	27	S
1	33	S
2	3	S
3	4	D
3	5	S
5	6	D
5	26	S
6	7	S
6	34	S
7	8	S
7	16	D
8	9	D
8	10	S
10	11	S
10	35	S
11	12	S
11	13	S
12	36	S
12	37	S
12	38	S
13	14	S
13	15	S
16	17	S
16	39	S
17	18	S
17	26	D
18	19	D
18	20	S
20	21	S
20	40	S
21	22	S
21	23	S
21	41	S
22	42	S
22	43	S
23	24	S
23	25	S
26	44	S
27	28	S
27	29	S
2	45	S
10	46	S
20	47	S
48	14	S
49	24	S
50	28	S
