25
22	23	24
O	1.9043	-0.4038	-1.4174
C	2.3229	-0.1202	-0.2534
O	2.0630	-0.7323	0.8312
C	3.1414	1.1884	-0.1177
O	4.5465	0.9199	-0.2887
C	5.3907	2.0039	-0.2072
C	5.1499	3.1726	0.5237
C	6.1062	4.2111	0.5866
C	5.8351	5.4685	1.4041
O	6.7241	6.3823	1.4225
O	4.7242	5.5415	2.0302
C	7.3197	4.0400	-0.1165
C	7.5967	2.8706	-0.8578
C	8.9112	2.6918	-1.6034
O	9.0829	1.6065	-2.2557
O	9.7746	3.6286	-1.5422
C	6.6120	1.8621	-0.8798
H	2.9398	1.6030	0.8750
H	2.8089	1.8958	-0.8876
H	4.2291	3.3017	1.0847
H	8.0691	4.8312	-0.0785
H	6.8046	0.9490	-1.4396
X	1.6890	-1.1337	-0.3585
X	5.6216	6.4585	2.0478
X	9.9478	2.5508	-2.1913
0	1	S
1	2	S
1	3	S
3	4	S
3	17	S
3	18	S
4	5	S
5	6	D
5	16	S
6	7	S
6	19	S
7	8	S
7	11	D
8	9	S
8	10	S
11	12	S
11	20	S
12	13	S
12	16	D
13	14	S
13	15	S
16	21	S
22	0	S
23	9	S
24	14	S
