34
31	32	33
N	2.3560	-0.0571	-0.1409
C	0.9610	0.0509	-0.0222
C	0.2193	0.7012	-1.0135
C	-1.1790	0.7066	-0.9715
C	-1.8492	0.0245	0.0471
C	-3.3549	0.0042	0.0856
N	-4.1712	0.5522	-0.8470
N	-5.4527	0.2294	-0.4939
C	-5.3830	-0.4289	0.6885
C	-6.5628	-0.9266	1.4803
C	-7.8589	-0.8033	0.9734
C	-8.9490	-1.2627	1.7195
C	-8.7558	-1.8819	2.9591
N	-9.8598	-2.2279	3.7544
C	-7.4633	-1.9425	3.4874
C	-6.3685	-1.4961	2.7429
N	-4.0936	-0.5757	1.0520
C	-1.1147	-0.6708	1.0119
C	0.2824	-0.6792	0.9583
H	2.7667	0.7327	-0.6270
H	2.8096	-0.2473	0.7463
H	0.7178	1.2113	-1.8319
H	-1.7475	1.2292	-1.7374
H	-8.0166	-0.3416	0.0009
H	-9.9486	-1.1307	1.3172
H	-10.6749	-2.4723	3.2018
H	-9.6342	-2.9332	4.4478
H	-7.2906	-2.3404	4.4826
H	-5.3632	-1.5653	3.1529
H	-1.6351	-1.2275	1.7876
H	0.8292	-1.2625	1.6919
X	-3.9129	1.0357	-1.5608
X	-6.2031	0.4157	-0.9545
X	-3.7862	-0.9813	1.7943
0	1	S
0	19	S
0	20	S
1	2	D
1	18	S
2	3	S
2	21	S
3	4	D
3	22	S
4	5	S
4	17	S
5	6	S
5	16	S
6	7	S
7	8	S
8	9	S
8	16	S
9	10	D
9	15	S
10	11	S
10	23	S
11	12	D
11	24	S
12	13	S
12	14	S
13	25	S
13	26	S
14	15	D
14	27	S
15	28	S
17	18	D
17	29	S
18	30	S
6	31	S
7	32	S
16	33	S
