34
31	32	33
N	2.3222	-0.0708	-0.1325
C	0.9238	0.0149	-0.0415
C	0.1917	0.6774	-1.0324
C	-1.2077	0.6666	-1.0146
C	-1.8877	-0.0400	-0.0197
C	-3.3946	-0.0456	0.0180
N	-4.2087	0.5360	-0.8864
C	-5.4692	0.3176	-0.4584
C	-6.7258	0.7609	-1.1614
C	-6.6594	1.4027	-2.4003
C	-7.8356	1.8012	-3.0464
C	-9.0871	1.5346	-2.4807
N	-10.2537	2.0469	-3.0700
C	-9.1417	0.9512	-1.2121
C	-7.9722	0.5402	-0.5665
N	-5.4433	-0.3712	0.7086
N	-4.1353	-0.6400	0.9853
C	-1.1608	-0.7517	0.9393
C	0.2367	-0.7452	0.9089
H	2.7327	0.7398	-0.5841
H	2.7576	-0.2799	0.7599
H	0.6997	1.2146	-1.8270
H	-1.7701	1.2037	-1.7747
H	-5.6911	1.5944	-2.8570
H	-7.7595	2.3184	-3.9976
H	-10.1808	2.1219	-4.0790
H	-11.0888	1.5514	-2.7755
H	-10.0930	0.8013	-0.7111
H	-8.0271	0.0647	0.4102
H	-1.6865	-1.3248	1.7000
H	0.7762	-1.3348	1.6431
X	-3.9602	0.9813	-1.6280
X	-6.1572	-0.6051	1.2043
X	-3.8195	-1.1205	1.6777
0	1	S
0	19	S
0	20	S
1	2	D
1	18	S
2	3	S
2	21	S
3	4	D
3	22	S
4	5	S
4	17	S
5	6	S
5	16	S
6	7	S
7	8	S
7	15	S
8	9	D
8	14	S
9	10	S
9	23	S
10	11	D
10	24	S
11	12	S
11	13	S
12	25	S
12	26	S
13	14	D
13	27	S
14	28	S
15	16	S
17	18	D
17	29	S
18	30	S
6	31	S
15	32	S
16	33	S
