24
20	21	22	23
O	1.6032	1.1056	0.5822
C	2.1728	0.1051	0.0245
O	1.8701	-0.3079	-1.1555
C	3.1178	-0.7580	0.8503
C	2.8390	-2.1521	0.9373
C	3.6045	-3.0810	1.7056
C	3.2040	-4.5485	1.6540
O	4.0844	-5.4168	1.3248
O	1.9580	-4.8314	1.7950
C	4.7064	-2.5812	2.4320
C	5.5829	-3.4283	3.3470
O	6.8531	-3.2406	3.2925
O	5.0262	-4.1758	4.2229
C	4.9933	-1.1870	2.3333
C	4.2317	-0.2592	1.5622
C	4.6895	1.1946	1.5338
O	5.0604	1.7211	2.6460
O	4.8203	1.7858	0.4075
H	1.9815	-2.5358	0.3848
H	5.8524	-0.8048	2.8860
X	1.4283	0.7851	-0.6261
X	2.8882	-5.7055	1.6133
X	6.2730	-4.0952	4.0674
X	5.0499	2.3390	1.5114
0	1	S
1	2	S
1	3	S
3	4	D
3	14	S
4	5	S
4	18	S
5	6	S
5	9	D
6	7	S
6	8	S
9	10	S
9	13	S
10	11	S
10	12	S
13	14	D
13	19	S
14	15	S
15	16	S
15	17	S
20	0	S
21	7	S
22	11	S
23	16	S
