28
24	25	26	27
O	1.4901	-0.8126	0.1126
C	2.4499	0.0121	-0.0363
O	2.8204	0.5190	-1.1408
C	3.2034	0.4143	1.2107
C	2.8576	-0.1190	2.4538
C	3.5665	0.2790	3.5712
N	4.5817	1.1689	3.5498
C	4.9273	1.7095	2.3453
C	4.2610	1.3387	1.1704
C	6.0146	2.7290	2.3583
N	6.3679	3.2587	1.1504
C	7.3167	4.2175	1.1367
C	7.9547	4.6951	2.2657
C	7.6165	4.1586	3.5094
C	6.6310	3.1567	3.5408
C	8.2876	4.6565	4.7684
O	7.9476	4.1222	5.8705
O	9.1520	5.5819	4.6332
H	2.0429	-0.8309	2.5363
H	3.3238	-0.1171	4.5516
H	4.5467	1.7749	0.2154
H	7.5567	4.6122	0.1555
H	8.7048	5.4764	2.1918
H	6.3424	2.7274	4.4974
X	5.0111	1.3929	4.3084
X	5.9856	2.9832	0.3837
X	1.8517	-0.3072	-1.0263
X	8.8205	5.0519	5.7682
0	1	S
1	2	S
1	3	S
3	4	D
3	8	S
4	5	S
4	18	S
5	6	S
5	19	S
6	7	S
7	8	D
7	9	S
8	20	S
9	10	S
9	14	S
10	11	S
11	12	D
11	21	S
12	13	S
12	22	S
13	14	D
13	15	S
14	23	S
15	16	S
15	17	S
6	24	S
10	25	S
26	0	S
27	16	S
