12
8	9	10	11
N	1.0834	0.0525	-0.1083
C	2.4550	0.0290	-0.0362
N	3.2117	1.1386	0.0456
N	4.4821	0.6726	0.1474
N	4.4589	-0.6793	0.1482
N	3.1737	-1.1016	0.0489
H	0.6592	0.9113	0.2066
H	0.6288	-0.7877	0.2112
X	2.9327	1.9942	0.0347
X	5.2231	1.1801	0.2053
X	5.1821	-1.2120	0.2056
X	2.8653	-1.9471	0.0412
0	1	S
0	6	S
0	7	S
1	2	S
1	5	S
2	3	S
3	4	S
4	5	S
2	8	S
3	9	S
4	10	S
5	11	S
