31
23	24	25	26	27	28	29	30
C	0.8924	-0.0768	0.0108
C	0.3177	-0.5595	-1.3159
C	-1.1575	-0.6131	-1.2770
N	-1.9421	0.4334	-1.6029
N	-3.1999	-0.0493	-1.4729
N	-3.1442	-1.3355	-1.0537
N	-1.8529	-1.7106	-0.9175
O	2.3258	0.0477	0.0135
C	2.8674	0.9683	-0.9505
C	2.3818	2.4032	-0.7746
C	2.9219	3.2883	-1.8245
N	2.3123	3.4824	-3.0105
N	3.1081	4.3788	-3.6436
N	4.1657	4.6764	-2.8543
N	4.0714	3.9833	-1.6921
H	0.6523	-0.8034	0.7976
H	0.4451	0.8671	0.3404
H	0.7260	-1.5490	-1.5548
H	0.6167	0.0951	-2.1414
H	2.6841	0.5866	-1.9607
H	3.9560	0.9344	-0.8192
H	2.6723	2.7696	0.2171
H	1.2886	2.4596	-0.8059
X	-1.6862	1.2603	-1.8494
X	-3.9545	0.4123	-1.6390
X	-3.8566	-1.8608	-0.8905
X	-1.5306	-2.5070	-0.6494
X	1.5529	3.1029	-3.3093
X	2.9576	4.7231	-4.4614
X	4.8284	5.2463	-3.0688
X	4.6400	3.9843	-0.9945
0	1	S
0	7	S
0	15	S
0	16	S
1	2	S
1	17	S
1	18	S
2	3	S
2	6	S
3	4	S
4	5	S
5	6	S
7	8	S
8	9	S
8	19	S
8	20	S
9	10	S
9	21	S
9	22	S
10	11	S
10	14	S
11	12	S
12	13	S
13	14	S
3	23	S
4	24	S
5	25	S
6	26	S
11	27	S
12	28	S
13	29	S
14	30	S
