28
25	26	27
O	2.6474	1.2818	-0.3249
C	2.2360	0.1281	0.0204
O	1.1540	-0.4164	-0.3727
C	3.1070	-0.6681	0.9750
C	2.7217	-1.9415	1.4124
C	3.5201	-2.6754	2.3019
C	4.7429	-2.1736	2.7858
C	5.5824	-2.9520	3.7290
C	5.6387	-4.3494	3.6970
N	6.3581	-5.1369	4.5374
C	7.0914	-4.4879	5.4758
C	7.1462	-3.1083	5.6121
C	8.0039	-2.4814	6.6751
O	8.0474	-1.2117	6.7194
O	8.6315	-3.2689	7.4526
C	6.3715	-2.3461	4.7204
C	5.1233	-0.8966	2.3368
C	4.3206	-0.1570	1.4537
H	1.7805	-2.3594	1.0592
H	3.1505	-3.6452	2.6238
H	5.0855	-4.9119	2.9502
H	7.6598	-5.1308	6.1443
H	6.3899	-1.2628	4.8313
H	6.0602	-0.4517	2.6649
H	4.6420	0.8331	1.1340
X	6.3494	-6.0348	4.4761
X	1.5474	0.7576	-0.7343
X	8.6887	-1.9808	7.5239
0	1	S
1	2	S
1	3	S
3	4	D
3	17	S
4	5	S
4	18	S
5	6	D
5	19	S
6	7	S
6	16	S
7	8	D
7	15	S
8	9	S
8	20	S
9	10	S
10	11	S
10	21	S
11	12	S
11	15	D
12	13	S
12	14	S
15	22	S
16	17	D
16	23	S
17	24	S
9	25	S
26	0	S
27	13	S
