18
15	16	17
O	1.1937	0.1542	0.4396
C	2.3584	-0.1390	0.0045
O	3.0062	-1.1753	0.3743
C	3.0006	0.7868	-0.9972
C	4.0563	0.3493	-1.8140
C	4.6594	1.1891	-2.7663
C	5.7695	0.6800	-3.6547
O	6.2844	1.4824	-4.5049
O	6.1452	-0.5333	-3.5225
C	4.1872	2.5097	-2.8724
C	3.1397	2.9946	-2.0689
C	2.6557	4.4206	-2.1864
O	1.7039	4.8041	-1.4247
O	3.2206	5.1862	-3.0386
C	2.5564	2.1110	-1.1452
X	1.8472	-0.8759	0.8018
X	6.6516	0.2755	-4.3606
X	2.2712	5.5535	-2.2797
0	1	S
1	2	S
1	3	S
3	4	D
3	14	S
4	5	S
5	6	S
5	9	D
6	7	S
6	8	S
9	10	S
10	11	S
10	14	D
11	12	S
11	13	S
15	0	S
16	7	S
17	12	S
