35
31	32	33	34
O	2.6588	0.7749	1.3953
C	2.0769	-0.2416	0.8873
O	0.8126	-0.4093	0.8723
C	2.9455	-1.3452	0.3053
C	2.4147	-2.2766	-0.6095
C	3.2243	-3.2639	-1.1807
O	2.7890	-4.2131	-2.0861
C	1.8168	-3.9308	-3.0276
C	1.5936	-2.6729	-3.5986
C	0.5758	-2.4818	-4.5556
C	0.3107	-1.1071	-5.1497
O	-0.8200	-0.9019	-5.7062
O	1.2482	-0.2447	-5.0948
C	-0.1784	-3.6049	-4.9651
C	0.0787	-4.9004	-4.4708
C	-0.6800	-6.1142	-4.9898
O	-0.3543	-7.2608	-4.5284
O	-1.5869	-5.9382	-5.8708
C	1.0830	-5.0361	-3.4917
C	4.5560	-3.3946	-0.7528
C	5.1215	-2.5096	0.1880
C	6.5561	-2.6801	0.6636
O	7.0229	-1.8614	1.5260
O	7.2288	-3.6570	0.1819
C	4.3027	-1.4725	0.6796
H	1.3629	-2.2009	-0.8771
H	2.1948	-1.8152	-3.3062
H	-0.9677	-3.4639	-5.7036
H	1.2978	-6.0256	-3.0924
H	5.1702	-4.1988	-1.1527
H	4.7202	-0.7543	1.3853
X	1.3913	0.6295	1.3467
X	0.1015	-0.0224	-5.6185
X	-1.2780	-7.0708	-5.3988
X	7.6880	-2.8146	1.0388
0	1	S
1	2	S
1	3	S
3	4	D
3	24	S
4	5	S
4	25	S
5	6	S
5	19	D
6	7	S
7	8	D
7	18	S
8	9	S
8	26	S
9	10	S
9	13	D
10	11	S
10	12	S
13	14	S
13	27	S
14	15	S
14	18	D
15	16	S
15	17	S
18	28	S
19	20	S
19	29	S
20	21	S
20	24	D
21	22	S
21	23	S
24	30	S
31	0	S
32	11	S
33	16	S
34	22	S
