13
10	11	12
C	1.0287	-0.0140	0.0049
N	2.4640	0.0065	0.0813
N	3.1534	-1.1011	0.4338
N	4.3580	-0.7454	0.4912
N	4.5458	0.5774	0.2131
C	3.3305	1.0511	-0.0286
S	2.9472	2.6393	-0.3872
H	0.6653	-1.0457	0.0061
H	0.7024	0.4855	-0.9114
H	0.6211	0.5225	0.8664
X	2.8598	-1.9351	0.6020
X	4.9923	-1.3487	0.7005
X	5.3156	1.0432	0.1931
0	1	S
0	7	S
0	8	S
0	9	S
1	2	S
1	5	S
2	3	S
3	4	S
4	5	S
5	6	D
2	10	S
3	11	S
4	12	S
