12
9	10	11
O	1.5981	0.7476	-0.8796
C	2.0796	-0.0462	-0.0005
O	1.3844	-0.7194	0.8299
C	3.6173	-0.1442	0.0782
N	5.0924	0.0177	0.0688
C	5.8986	-1.1835	0.3950
C	6.9535	-2.2636	0.7136
O	6.6958	-3.4776	0.4077
O	8.0475	-1.8574	1.2348
X	5.4795	0.8066	-0.1254
X	0.8836	0.0300	-0.0617
X	7.7739	-3.1036	0.9614
0	1	S
1	2	S
1	3	S
3	4	S
4	5	S
5	6	S
6	7	S
6	8	S
4	9	S
10	0	S
11	7	S
