10
6	7	8	9
C	0.6638	-0.8822	0.0011
N	1.1267	0.3818	0.0003
N	-0.0001	1.1353	-0.0004
N	-1.0846	0.3236	-0.0000
N	-0.6794	-0.9699	0.0005
H	1.3103	-1.7460	0.0021
X	1.9836	0.6570	0.0002
X	-0.0244	2.0350	-0.0010
X	-1.9409	0.6006	-0.0001
X	-1.1850	-1.7144	0.0004
0	1	S
0	4	S
0	5	S
1	2	S
2	3	S
3	4	S
1	6	S
2	7	S
3	8	S
4	9	S
