28
25	26	27
O	3.5507	-1.5139	1.8674
C	4.0615	-0.6315	1.1160
O	4.5666	0.4849	1.4379
C	4.0603	-0.9639	-0.3997
C	3.1914	-1.8317	-0.9714
C	3.1796	-1.8252	-2.4214
C	2.1348	-1.7914	-3.2445
C	0.7188	-1.9208	-3.1264
C	-0.0606	-1.4618	-4.1260
C	-1.6126	-1.5720	-4.0642
O	-2.2427	-0.9913	-4.9985
O	-2.0817	-2.2452	-3.1010
C	0.5278	-0.8091	-5.2946
C	1.8522	-0.7034	-5.4987
C	2.7636	-1.1874	-4.4451
N	4.0524	-1.0173	-4.4195
C	4.3864	-1.4183	-3.1476
C	5.4257	-0.6855	-2.4212
C	5.0074	-0.1702	-1.2378
H	2.4597	-2.3893	-0.3975
H	0.2946	-2.3748	-2.2373
H	-0.1602	-0.3618	-6.0061
H	2.2842	-0.1800	-6.3373
H	6.2697	-1.3761	-2.3418
H	4.5641	0.8334	-1.2964
X	4.5668	-0.7096	-5.0909
X	4.0624	-0.3744	2.2881
X	-2.8086	-1.6569	-4.0166
0	1	S
1	2	S
1	3	S
3	4	D
3	18	S
4	5	S
4	19	S
5	6	D
5	16	S
6	7	S
6	14	S
7	8	D
7	20	S
8	9	S
8	12	S
9	10	S
9	11	S
12	13	D
12	21	S
13	14	S
13	22	S
14	15	S
15	16	S
16	17	S
17	18	D
17	23	S
18	24	S
15	25	S
26	0	S
27	10	S
