24
20	21	22	23
C	-0.1349	-0.6873	0.1610
N	1.0900	-0.1622	0.4434
C	0.9655	1.0904	0.1721
N	-0.2070	1.5130	-0.2822
N	-1.0695	0.3197	-0.2122
C	-1.7469	0.0387	-1.4773
C	-2.7353	1.1510	-1.8297
N	-3.2782	0.9863	-3.1605
C	-2.7763	1.4964	-4.3212
N	-3.5778	1.1975	-5.3194
C	-4.5711	0.4897	-4.7037
N	-4.4414	0.3398	-3.3846
H	-0.2876	-1.7578	0.1125
H	1.7450	1.8574	0.2606
H	-2.2963	-0.9109	-1.4107
H	-1.0159	-0.0853	-2.2895
H	-2.2579	2.1389	-1.8192
H	-3.5724	1.1786	-1.1233
H	-1.8558	2.0609	-4.3692
H	-5.4172	0.0736	-5.2331
X	1.8351	-0.5639	0.7491
X	-0.3686	2.3552	-0.5554
X	-3.4748	1.4171	-6.1861
X	-4.9875	-0.0810	-2.8060
0	1	S
0	4	S
0	12	S
1	2	S
2	3	S
2	13	S
3	4	S
4	5	S
5	6	S
5	14	S
5	15	S
6	7	S
6	16	S
6	17	S
7	8	S
7	11	S
8	9	S
8	18	S
9	10	S
10	11	S
10	19	S
1	20	S
3	21	S
9	22	S
11	23	S
