28
24	25	26	27
C	1.3932	-0.2110	-0.0707
C	0.5139	-1.3000	0.0163
C	-0.8717	-1.0963	0.0393
N	-1.7659	-2.2005	0.0851
C	-1.4615	-3.5380	0.1510
N	-2.5576	-4.2617	0.1622
N	-3.6208	-3.4010	0.1023
C	-3.1389	-2.1800	0.0556
C	-1.3626	0.2150	0.0021
C	-0.4839	1.3035	-0.0801
C	0.9008	1.0989	-0.1315
N	1.7888	2.2022	-0.2569
C	1.4749	3.5363	-0.3490
N	2.5641	4.2602	-0.4665
N	3.6316	3.4033	-0.4567
C	3.1591	2.1837	-0.3313
H	2.4568	-0.4333	-0.0970
H	0.9558	-2.2926	0.0514
H	-0.4609	-3.9391	0.1920
H	-3.7391	-1.2855	-0.0071
H	-2.4259	0.4387	0.0329
H	-0.9264	2.2958	-0.1079
H	0.4722	3.9344	-0.3322
H	3.7655	1.2917	-0.2958
X	-2.5763	-5.1606	0.2025
X	-4.4973	-3.6054	0.0948
X	2.5764	5.1572	-0.5387
X	4.5053	3.6091	-0.5223
0	1	D
0	10	S
0	16	S
1	2	S
1	17	S
2	3	S
2	8	D
3	4	S
3	7	S
4	5	S
4	18	S
5	6	S
6	7	S
7	19	S
8	9	S
8	20	S
9	10	D
9	21	S
10	11	S
11	12	S
11	15	S
12	13	S
12	22	S
13	14	S
14	15	S
15	23	S
5	24	S
6	25	S
13	26	S
14	27	S
