37
34	35	36
O	2.8618	2.3823	-2.5437
C	2.5389	2.9700	-1.4610
O	1.7239	3.9499	-1.3881
C	3.1625	2.4833	-0.1598
C	2.8053	3.0787	1.0664
C	3.3408	2.6335	2.2858
C	2.8454	3.2027	3.6019
C	1.6683	2.4835	4.2402
C	1.2032	2.8963	5.5051
C	0.1349	2.2432	6.1563
C	-0.3642	2.7147	7.5113
O	-1.3114	2.0542	8.0489
O	0.1941	3.7388	8.0207
C	-0.4605	1.1441	5.5131
C	-0.0259	0.7258	4.2493
C	-0.7096	-0.4239	3.5987
O	-1.8795	-0.7164	3.8032
O	0.0864	-1.1695	2.7974
C	1.0129	1.4110	3.6120
C	4.2718	1.5817	2.2705
C	4.6677	0.9603	1.0703
C	5.6699	-0.1852	1.0953
O	6.0249	-0.7048	-0.0114
O	6.0983	-0.5597	2.2381
C	4.0947	1.4226	-0.1343
H	2.0711	3.8840	1.0560
H	2.5816	4.2583	3.4582
H	3.6830	3.1897	4.3139
H	1.6691	3.7477	6.0028
H	-1.2771	0.6195	6.0090
H	1.0231	-0.8869	2.7573
H	1.3100	1.1280	2.6053
H	4.6896	1.2131	3.2069
H	4.3758	0.9430	-1.0729
X	2.0475	3.3535	-2.4864
X	-0.7585	3.0872	8.5817
X	6.4599	-1.0882	1.1150
0	1	S
1	2	S
1	3	S
3	4	D
3	24	S
4	5	S
4	25	S
5	6	S
5	19	D
6	7	S
6	26	S
6	27	S
7	8	D
7	18	S
8	9	S
8	28	S
9	10	S
9	13	D
10	11	S
10	12	S
13	14	S
13	29	S
14	15	S
14	18	D
15	16	D
15	17	S
17	30	S
18	31	S
19	20	S
19	32	S
20	21	S
20	24	D
21	22	S
21	23	S
24	33	S
34	0	S
35	11	S
36	22	S
