28
25	26	27
C	1.4500	0.0622	-0.0000
C	0.7060	1.2337	-0.0915
C	-0.6822	1.1461	-0.0741
N	-1.4678	2.3319	-0.1152
C	-1.0495	3.6421	-0.2153
C	-2.1929	4.4058	-0.1858
N	-3.3020	3.6161	-0.0782
C	-2.8419	2.3838	-0.0404
N	-1.3357	-0.0460	0.0004
C	-0.5919	-1.1827	0.0784
N	-1.2844	-2.4255	0.1322
C	-0.7682	-3.6967	0.2682
C	-1.8489	-4.5469	0.2412
N	-3.0136	-3.8479	0.0996
C	-2.6491	-2.5846	0.0405
C	0.7991	-1.1638	0.0943
H	2.5364	0.1038	-0.0027
H	1.2346	2.1770	-0.1628
H	-0.0140	3.9331	-0.2991
H	-2.2713	5.4845	-0.2384
H	-3.4483	1.4918	0.0501
H	0.2847	-3.9043	0.3775
H	-1.8447	-5.6270	0.3191
H	-3.3206	-1.7444	-0.0795
H	1.3987	-2.0635	0.1630
X	-4.1674	3.8602	-0.0397
X	-2.2350	-0.0817	-0.0019
X	-3.8569	-4.1591	0.0541
0	1	D
0	15	S
0	16	S
1	2	S
1	17	S
2	3	S
2	8	S
3	4	S
3	7	S
4	5	D
4	18	S
5	6	S
5	19	S
6	7	S
7	20	S
8	9	S
9	10	S
9	15	D
10	11	S
10	14	S
11	12	D
11	21	S
12	13	S
12	22	S
13	14	S
14	23	S
15	24	S
6	25	S
8	26	S
13	27	S
