18
15	16	17
O	0.9822	-0.2083	0.0094
C	2.2276	-0.0394	0.1831
O	2.9249	-0.3209	1.2094
C	3.0032	0.6053	-1.0245
C	2.4879	2.0378	-1.1468
S	3.8645	3.1184	-0.6835
C	5.0840	1.8476	-1.0951
C	5.4744	2.0391	-2.6284
O	4.5775	1.8760	-3.5128
O	6.6936	2.3703	-2.8205
N	4.4882	0.5271	-0.7961
H	2.7540	0.0268	-1.9212
H	1.6262	2.2719	-0.5151
H	2.2188	2.2603	-2.1841
H	5.9818	1.9900	-0.4842
X	4.4320	0.6621	-1.6841
X	1.6361	-0.5311	1.1041
X	5.7683	2.1833	-3.7829
0	1	S
1	2	S
1	3	S
3	4	S
3	10	S
3	11	S
4	5	S
4	12	S
4	13	S
5	6	S
6	7	S
6	10	S
6	14	S
7	8	S
7	9	S
10	15	S
16	0	S
17	8	S
