30
27	28	29
C	0.0203	1.0361	-0.6038
C	1.1315	0.1727	-0.3601
C	0.6214	-0.8898	0.2721
N	-0.7430	-0.8343	0.4963
C	-1.1252	0.3203	0.0007
C	-2.5186	0.8464	-0.0246
C	-2.7717	2.1703	-0.0078
C	-4.0728	2.8066	0.0450
C	-3.9560	4.1352	0.0659
C	-2.5086	4.2847	0.0301
N	-1.8303	3.1798	-0.0112
C	-3.6208	-0.1388	-0.0087
C	-4.1910	-0.5729	-1.2077
C	-5.2130	-1.5060	-1.1506
N	-5.6994	-2.0173	-0.0000
C	-5.1272	-1.5870	1.1451
C	-4.1034	-0.6552	1.1949
H	-0.0596	1.7682	-1.3871
H	2.1547	0.3417	-0.6473
H	1.1858	-1.7513	0.6025
H	-5.0112	2.2746	0.0838
H	-4.6972	4.9090	0.1148
H	-2.0654	5.2896	0.0387
H	-3.8449	-0.2044	-2.1672
H	-5.6798	-1.8819	-2.0568
H	-5.5237	-2.0299	2.0546
H	-3.6819	-0.3550	2.1484
X	-1.2819	-1.4373	0.8912
X	-0.9322	3.1269	-0.0360
X	-6.3719	-2.6154	0.0035
0	1	S
0	4	S
0	17	S
1	2	D
1	18	S
2	3	S
2	19	S
3	4	S
4	5	S
5	6	D
5	11	S
6	7	S
6	10	S
7	8	D
7	20	S
8	9	S
8	21	S
9	10	S
9	22	S
11	12	D
11	16	S
12	13	S
12	23	S
13	14	S
13	24	S
14	15	S
15	16	D
15	25	S
16	26	S
3	27	S
10	28	S
14	29	S
