32
29	30	31
O	5.0701	-1.0635	1.1695
C	4.2165	-0.1416	1.3774
O	3.2527	-0.2111	2.2065
C	4.3613	1.1356	0.5666
C	3.4443	2.1926	0.7033
C	3.5703	3.3679	-0.0530
C	4.6510	3.5318	-0.9211
O	4.8729	4.6376	-1.7145
C	4.5541	5.9080	-1.2830
C	4.5048	6.3130	0.0449
C	4.1132	7.6170	0.3578
C	3.8318	8.5770	-0.6403
C	3.2533	9.9051	-0.1825
O	2.2058	10.3373	-0.7635
O	3.7375	10.3956	0.8989
C	4.0394	8.2178	-1.9913
C	4.0378	9.2076	-3.1439
O	3.6255	8.7710	-4.2746
O	4.6135	10.3323	-2.9757
C	4.3585	6.8664	-2.2858
C	5.5518	2.4771	-1.0895
C	5.4089	1.2929	-0.3554
H	2.6184	2.0923	1.4061
H	2.8211	4.1467	0.0568
H	4.7412	5.6338	0.8544
H	4.0046	7.9082	1.4009
H	4.4757	6.5823	-3.3307
H	6.3676	2.5746	-1.7990
H	6.1189	0.4809	-0.4937
X	4.1022	-1.1501	2.0176
X	2.7964	10.9541	0.1791
X	4.0365	9.9894	-4.0543
0	1	S
1	2	S
1	3	S
3	4	D
3	21	S
4	5	S
4	22	S
5	6	D
5	23	S
6	7	S
6	20	S
7	8	S
8	9	D
8	19	S
9	10	S
9	24	S
10	11	D
10	25	S
11	12	S
11	15	S
12	13	S
12	14	S
15	16	S
15	19	D
16	17	S
16	18	S
19	26	S
20	21	D
20	27	S
21	28	S
29	0	S
30	13	S
31	17	S
