34
30	31	32	33
C	-0.9058	0.3474	1.5613
N	-0.1851	-0.7760	1.8406
C	0.9991	-0.4963	1.3475
N	0.9848	0.7445	0.7854
C	2.0341	1.4745	0.0832
C	3.3295	0.7226	-0.0435
C	3.5417	-0.1324	-1.1357
C	4.6860	-0.9322	-1.2117
C	5.6744	-0.8606	-0.2178
C	6.9123	-1.7276	-0.2570
N	8.0215	-1.1063	-0.9608
C	8.3497	-1.2467	-2.2753
N	9.5071	-0.6674	-2.5066
C	9.8605	-0.1905	-1.2775
N	8.9897	-0.4399	-0.2953
C	5.4804	0.0243	0.8546
C	4.3172	0.7931	0.9473
N	-0.2358	1.3095	0.9219
H	-1.9482	0.4666	1.8297
H	1.8651	-1.1439	1.3726
H	2.1798	2.4223	0.6143
H	1.6415	1.7055	-0.9150
H	2.7992	-0.1970	-1.9307
H	4.7636	-1.6265	-2.0431
H	6.7025	-2.6901	-0.7384
H	7.2555	-1.9484	0.7625
H	7.7354	-1.7679	-2.9953
H	10.7865	0.3404	-1.0920
H	6.2323	0.1017	1.6360
H	4.1889	1.4473	1.8132
X	-0.4353	-1.5334	2.2575
X	9.9403	-0.6122	-3.2935
X	9.0412	-0.2195	0.5758
X	-0.5274	2.1182	0.6556
0	1	S
0	17	S
0	18	S
1	2	S
2	3	S
2	19	S
3	4	S
3	17	S
4	5	S
4	20	S
4	21	S
5	6	D
5	16	S
6	7	S
6	22	S
7	8	D
7	23	S
8	9	S
8	15	S
9	10	S
9	24	S
9	25	S
10	11	S
10	14	S
11	12	S
11	26	S
12	13	S
13	14	S
13	27	S
15	16	D
15	28	S
16	29	S
1	30	S
12	31	S
14	32	S
17	33	S
