35
30	31	32	33	34
O	2.8035	-0.8539	2.3899
C	2.9621	-0.4771	1.1750
O	2.6644	-1.2233	0.1755
C	3.5292	0.9080	0.9029
C	3.7376	1.3796	-0.4027
C	4.2587	2.6726	-0.6497
C	4.5881	3.5719	0.3782
N	5.0873	4.8048	0.0570
N	4.9802	5.8268	1.1404
C	5.4853	7.0817	0.9157
C	6.3352	7.4838	-0.1491
C	6.8464	8.8087	-0.2850
C	7.7742	9.2309	-1.4318
O	8.1811	10.4532	-1.4672
O	8.1347	8.3870	-2.3267
C	6.4707	9.7583	0.6982
C	5.6272	9.4382	1.7831
C	5.2476	10.4984	2.8201
O	4.4853	10.1913	3.8057
O	5.7092	11.6910	2.6781
C	5.1617	8.1002	1.8592
C	4.3880	3.0805	1.6782
C	3.8730	1.7881	1.9399
H	3.4908	0.7449	-1.2466
H	4.4047	3.0076	-1.6729
H	6.6105	6.7310	-0.8856
H	6.8492	10.7744	0.6146
H	4.5118	7.8232	2.6880
H	4.6454	3.7368	2.5068
H	3.7411	1.4852	2.9727
X	5.4406	4.9277	-0.7616
X	4.6036	5.6835	1.9451
X	2.5148	-1.5697	1.3896
X	8.4998	9.5611	-2.3287
X	4.9500	11.3295	3.6330
0	1	S
1	2	S
1	3	S
3	4	D
3	22	S
4	5	S
4	23	S
5	6	D
5	24	S
6	7	S
6	21	S
7	8	S
8	9	S
9	10	D
9	20	S
10	11	S
10	25	S
11	12	S
11	15	D
12	13	S
12	14	S
15	16	S
15	26	S
16	17	S
16	20	D
17	18	S
17	19	S
20	27	S
21	22	D
21	28	S
22	29	S
7	30	S
8	31	S
32	0	S
33	13	S
34	18	S
