36
24	25	26	27	28	29	30	31	32	33	34	35
C	1.3762	-0.2119	-0.1371
C	0.4884	-1.3019	-0.1257
C	1.0264	-2.7260	-0.0985
N	2.3481	-3.0521	-0.0803
N	2.3811	-4.4068	-0.0794
N	1.1201	-4.8828	-0.0882
N	0.2498	-3.8442	-0.0943
C	-0.8976	-1.0678	-0.1510
C	-1.3976	0.2451	-0.1952
C	-2.8990	0.4919	-0.2462
N	-3.8441	-0.4880	-0.2469
N	-5.0310	0.1615	-0.3264
N	-4.8095	1.4905	-0.3621
N	-3.4762	1.7237	-0.3041
C	-0.5019	1.3278	-0.2047
C	0.8856	1.1048	-0.1772
C	1.8500	2.2824	-0.2009
N	1.4699	3.5895	-0.2466
N	2.6254	4.2968	-0.2642
N	3.6693	3.4453	-0.2228
N	3.2067	2.1721	-0.1797
H	2.4505	-0.3884	-0.1207
H	-1.5882	-1.9097	-0.1435
H	-0.8852	2.3465	-0.2396
X	3.0515	-2.4907	-0.0709
X	3.1256	-4.9124	-0.0738
X	0.8953	-5.7543	-0.0898
X	-0.6491	-3.8876	-0.0953
X	-3.7121	-1.3772	-0.2039
X	-5.8413	-0.2294	-0.3516
X	-5.4493	2.1211	-0.4160
X	-3.0634	2.5235	-0.3040
X	0.6317	3.9169	-0.2619
X	2.6896	5.1939	-0.2982
X	4.5360	3.6879	-0.2238
X	3.6948	1.4168	-0.1446
0	1	D
0	15	S
0	21	S
1	2	S
1	7	S
2	3	S
2	6	S
3	4	S
4	5	S
5	6	S
7	8	D
7	22	S
8	9	S
8	14	S
9	10	S
9	13	S
10	11	S
11	12	S
12	13	S
14	15	D
14	23	S
15	16	S
16	17	S
16	20	S
17	18	S
18	19	S
19	20	S
3	24	S
4	25	S
5	26	S
6	27	S
10	28	S
11	29	S
12	30	S
13	31	S
17	32	S
18	33	S
19	34	S
20	35	S
