32
28	29	30	31
N	2.2243	0.0040	-0.1007
N	0.7750	-0.0007	-0.1138
C	-0.0484	-1.1120	-0.0603
C	0.3748	-2.5106	-0.0919
C	-0.3433	-3.4820	0.6129
C	0.0864	-4.8083	0.6116
C	1.2299	-5.1279	-0.1000
N	1.9388	-4.2295	-0.8144
C	1.4827	-2.9530	-0.8104
N	-1.2881	-0.6886	0.1123
N	-1.2885	0.6841	0.1097
C	-0.0495	1.1103	-0.0629
C	0.3662	2.5112	-0.0987
C	1.4829	2.9631	-0.8110
C	1.8491	4.3079	-0.7609
C	1.0702	5.1741	-0.0155
N	-0.0303	4.7901	0.6614
C	-0.3610	3.4752	0.5950
H	2.5915	-0.8131	0.3881
H	2.5736	0.7909	0.4476
H	-1.2392	-3.2097	1.1684
H	-0.4578	-5.5721	1.1560
H	1.6135	-6.1441	-0.1207
H	2.0656	-2.2823	-1.4363
H	2.0759	2.2859	-1.4194
H	2.7215	4.6682	-1.2959
H	1.3149	6.2302	0.0546
H	-1.2604	3.2099	1.1489
X	2.6772	-4.4691	-1.2697
X	-1.9981	-1.2325	0.2127
X	-1.9996	1.2271	0.2072
X	-0.5188	5.3808	1.1331
0	1	S
0	18	S
0	19	S
1	2	S
1	11	S
2	3	S
2	9	S
3	4	D
3	8	S
4	5	S
4	20	S
5	6	D
5	21	S
6	7	S
6	22	S
7	8	S
8	23	S
9	10	S
10	11	S
11	12	S
12	13	D
12	17	S
13	14	S
13	24	S
14	15	D
14	25	S
15	16	S
15	26	S
16	17	S
17	27	S
7	28	S
9	29	S
10	30	S
16	31	S
