32
29	30	31
C	1.0839	0.0272	0.3884
C	2.4649	-0.0147	-0.1605
N	2.9612	1.0959	-0.8066
N	3.6819	0.7346	-1.7776
C	3.7249	-0.6442	-1.8155
C	4.4562	-1.2949	-2.9392
C	3.0258	-1.1801	-0.8020
C	2.7600	-2.5680	-0.3110
C	3.3919	-3.6809	-1.1088
C	4.6973	-4.1085	-0.8354
C	5.3288	-5.0235	-1.6838
C	4.6729	-5.5310	-2.8164
C	5.3903	-6.4450	-3.7914
O	4.7389	-6.8278	-4.8131
O	6.5956	-6.7499	-3.5198
C	3.3442	-5.1438	-3.0446
C	2.7050	-4.2336	-2.1985
H	0.9184	0.9576	0.9408
H	0.8896	-0.8082	1.0644
H	0.3566	-0.0115	-0.4310
H	4.6876	-0.5637	-3.7209
H	3.8463	-2.0631	-3.4186
H	5.4004	-1.7279	-2.5995
H	1.6765	-2.7458	-0.2690
H	3.1078	-2.6485	0.7296
H	5.2517	-3.7064	0.0070
H	6.3569	-5.3268	-1.4894
H	2.8224	-5.5293	-3.9188
H	1.6933	-3.9207	-2.4346
X	2.8287	1.9652	-0.6147
X	4.0785	1.3300	-2.3236
X	5.9579	-7.1681	-4.5628
0	1	S
0	17	S
0	18	S
0	19	S
1	2	S
1	6	S
2	3	S
3	4	S
4	5	S
4	6	D
5	20	S
5	21	S
5	22	S
6	7	S
7	8	S
7	23	S
7	24	S
8	9	D
8	16	S
9	10	S
9	25	S
10	11	D
10	26	S
11	12	S
11	15	S
12	13	S
12	14	S
15	16	D
15	27	S
16	28	S
2	29	S
3	30	S
31	13	S
