34
30	31	32	33
C	1.4181	-0.2188	-0.0236
C	0.5466	-1.3114	0.0584
C	-0.8424	-1.1195	0.0775
C	-1.7873	-2.2946	0.1204
N	-2.1182	-2.6864	1.4719
C	-1.4976	-3.6383	2.2203
N	-2.1557	-3.8067	3.3431
N	-3.2335	-2.9502	3.3284
C	-3.1987	-2.2863	2.1959
C	-1.3377	0.1904	0.0421
C	-0.4674	1.2810	-0.0506
C	0.9192	1.0893	-0.1043
C	1.8497	2.2631	-0.2823
N	2.2430	2.8651	0.9720
C	1.6399	3.9104	1.6007
N	2.3628	4.2722	2.6351
N	3.4682	3.4527	2.6795
C	3.3841	2.6170	1.6702
H	2.4904	-0.4040	-0.0434
H	0.9666	-2.3153	0.0900
H	-1.3543	-3.1633	-0.3903
H	-2.7224	-2.0576	-0.4020
H	-0.6086	-4.1727	1.9164
H	-3.9144	-1.5456	1.8701
H	-2.4107	0.3774	0.0689
H	-0.8892	2.2838	-0.0983
H	1.3754	3.0390	-0.8958
H	2.7598	1.9590	-0.8131
H	0.7166	4.3696	1.2783
H	4.1064	1.8561	1.4116
X	-1.9178	-4.3877	3.9879
X	-3.8637	-2.8411	3.9616
X	2.1460	4.9417	3.1962
X	4.1419	3.4619	3.2762
0	1	D
0	11	S
0	18	S
1	2	S
1	19	S
2	3	S
2	9	D
3	4	S
3	20	S
3	21	S
4	5	S
4	8	S
5	6	S
5	22	S
6	7	S
7	8	S
8	23	S
9	10	S
9	24	S
10	11	D
10	25	S
11	12	S
12	13	S
12	26	S
12	27	S
13	14	S
13	17	S
14	15	S
14	28	S
15	16	S
16	17	S
17	29	S
6	30	S
7	31	S
15	32	S
16	33	S
