22
16	17	18	19	20	21
O	1.0092	-0.1081	0.0600
C	2.2731	-0.0256	-0.0522
O	2.9501	-0.5335	-1.0066
C	3.0249	0.7221	1.0169
C	2.7418	0.5244	2.3797
N	1.7720	-0.4563	2.7883
C	3.4204	1.2578	3.3863
N	3.0146	1.0720	4.7536
C	4.4420	2.1692	3.0572
C	4.7488	2.3408	1.6963
C	4.0322	1.6489	0.6881
N	4.3361	1.9403	-0.6878
N	5.8267	3.2032	1.2934
C	5.1800	2.9376	4.1289
O	5.4002	4.1739	3.9245
O	5.5372	2.3024	5.1718
X	1.1652	-1.0699	3.0439
X	2.7607	0.9557	5.6092
X	4.5262	2.1226	-1.5484
X	6.5013	3.7429	1.0412
X	1.6740	-0.6215	-0.9042
X	5.7660	3.5478	4.9799
0	1	S
1	2	S
1	3	S
3	4	D
3	10	S
4	5	S
4	6	S
6	7	S
6	8	D
8	9	S
8	13	S
9	10	D
9	12	S
10	11	S
13	14	S
13	15	S
5	16	S
7	17	S
11	18	S
12	19	S
20	0	S
21	14	S
