20
15	16	17	18	19
C	-0.6644	1.1219	0.1313
C	0.7153	1.2191	0.1245
C	1.4528	0.0438	-0.0157
C	2.9599	0.0926	-0.0314
N	3.6857	1.2311	0.1058
N	4.9757	0.8274	0.0363
N	5.0172	-0.5098	-0.1428
N	3.7546	-0.9962	-0.1847
C	0.7869	-1.1749	-0.1406
C	-0.5962	-1.1634	-0.1171
N	-1.3425	-0.0431	0.0148
H	-1.2816	2.0092	0.2336
H	1.2045	2.1825	0.2230
H	1.3330	-2.1059	-0.2503
H	-1.1592	-2.0874	-0.2065
X	3.3789	2.0697	0.2182
X	5.6947	1.3650	0.0994
X	5.7681	-0.9997	-0.2218
X	3.5001	-1.8529	-0.2909
X	-2.2420	-0.0713	0.0245
0	1	D
0	10	S
0	11	S
1	2	S
1	12	S
2	3	S
2	8	D
3	4	S
3	7	S
4	5	S
5	6	S
6	7	S
8	9	S
8	13	S
9	10	S
9	14	S
4	15	S
5	16	S
6	17	S
7	18	S
10	19	S
