34
31	32	33
O	2.1796	1.5271	1.8015
C	1.8317	0.3836	1.3490
O	0.6888	0.1314	0.8464
C	2.8587	-0.7375	1.4169
C	2.5698	-2.0455	0.9814
C	3.5359	-3.0718	1.0229
C	3.2282	-4.4799	0.5304
O	4.1452	-5.3605	0.6424
O	2.0749	-4.7081	0.0385
C	4.8237	-2.7497	1.5032
C	5.1788	-1.4473	1.9083
C	6.5837	-1.0806	2.2370
C	7.6666	-1.6842	1.5554
C	9.0021	-1.2845	1.7469
C	10.1435	-1.9067	0.9693
O	11.3014	-1.4129	1.1892
O	9.8883	-2.8419	0.1547
C	9.2564	-0.2508	2.6592
C	8.2098	0.3816	3.3373
C	8.4700	1.5370	4.2373
O	7.8239	1.7880	5.2408
O	9.4824	2.3323	3.8095
C	6.8906	-0.0525	3.1514
C	4.1621	-0.4715	1.8841
H	1.5781	-2.2670	0.5868
H	5.5666	-3.5474	1.5205
H	7.4740	-2.4672	0.8192
H	10.2922	0.0401	2.8198
H	9.8085	2.0849	2.9210
H	6.0917	0.4410	3.7029
H	4.3802	0.5525	2.1821
X	1.0219	1.2676	1.2955
X	2.9858	-5.5893	0.1424
X	11.0477	-2.3996	0.3533
0	1	S
1	2	S
1	3	S
3	4	D
3	23	S
4	5	S
4	24	S
5	6	S
5	9	D
6	7	S
6	8	S
9	10	S
9	25	S
10	11	S
10	23	D
11	12	D
11	22	S
12	13	S
12	26	S
13	14	S
13	17	D
14	15	S
14	16	S
17	18	S
17	27	S
18	19	S
18	22	D
19	20	D
19	21	S
21	28	S
22	29	S
23	30	S
31	0	S
32	7	S
33	15	S
