30
27	28	29
C	0.8846	0.4357	-0.3295
C	-0.1197	1.1776	0.3578
C	-1.1657	0.3905	0.6038
C	-0.7517	-0.8816	-0.0205
C	-1.6394	-2.0874	0.0034
C	-2.9829	-1.9634	0.0053
C	-3.9597	-3.0309	0.0419
C	-5.2040	-2.5431	0.0312
C	-4.9396	-1.1147	-0.0274
N	-3.6883	-0.7770	-0.0423
C	-1.0027	-3.4232	-0.0079
C	-0.7626	-4.0934	-1.2094
C	-0.2016	-5.3599	-1.1569
N	0.1233	-5.9919	-0.0085
C	-0.1017	-5.3171	1.1389
C	-0.6581	-4.0491	1.1923
N	0.4521	-0.8469	-0.5329
H	1.9009	0.7459	-0.5177
H	-0.0241	2.2105	0.6514
H	-2.0755	0.6147	1.1249
H	-3.7149	-4.0824	0.0821
H	-6.1550	-3.0351	0.0565
H	-5.7763	-0.4021	-0.0483
H	-0.9981	-3.6414	-2.1668
H	0.0068	-5.9184	-2.0654
H	0.1850	-5.8419	2.0461
H	-0.8160	-3.5654	2.1500
X	-3.3850	0.0697	-0.0770
X	0.4724	-6.8214	-0.0079
X	0.8774	-1.5349	-0.9276
0	1	S
0	16	S
0	17	S
1	2	D
1	18	S
2	3	S
2	19	S
3	4	S
3	16	S
4	5	D
4	10	S
5	6	S
5	9	S
6	7	D
6	20	S
7	8	S
7	21	S
8	9	S
8	22	S
10	11	D
10	15	S
11	12	S
11	23	S
12	13	S
12	24	S
13	14	S
14	15	D
14	25	S
15	26	S
9	27	S
13	28	S
16	29	S
