27
23	24	25	26
C	-0.3489	-0.8754	0.2404
N	0.8000	-0.3880	0.7872
C	0.6791	0.8898	0.6857
N	-0.4215	1.3631	0.1172
N	-1.2533	0.1658	-0.1096
C	-1.7632	0.0655	-1.4711
C	-2.7522	1.2001	-1.7563
C	-3.1562	1.2192	-3.2217
N	-4.0399	2.3227	-3.5317
C	-3.7830	3.6555	-3.4052
N	-4.8206	4.3474	-3.8238
C	-5.6988	3.3723	-4.2002
N	-5.2613	2.1187	-4.0654
H	-0.4542	-1.9260	0.0030
H	1.4134	1.6414	1.0057
H	-2.2834	-0.8916	-1.6093
H	-0.9415	0.0905	-2.2007
H	-2.3018	2.1677	-1.5044
H	-3.6403	1.0939	-1.1208
H	-3.6668	0.2886	-3.4963
H	-2.2807	1.3300	-3.8752
H	-2.8579	4.0507	-3.0079
H	-6.6853	3.5837	-4.5904
X	1.5010	-0.8244	1.1451
X	-0.5616	2.2341	-0.0609
X	-4.9062	5.2430	-3.8465
X	-5.6757	1.3481	-4.2763
0	1	S
0	4	S
0	13	S
1	2	S
2	3	S
2	14	S
3	4	S
4	5	S
5	6	S
5	15	S
5	16	S
6	7	S
6	17	S
6	18	S
7	8	S
7	19	S
7	20	S
8	9	S
8	12	S
9	10	S
9	21	S
10	11	S
11	12	S
11	22	S
1	23	S
3	24	S
10	25	S
12	26	S
