22
19	20	21
O	5.6090	0.6721	0.8220
C	4.8598	0.2065	-0.0920
O	4.7596	-1.0202	-0.4223
C	4.0097	1.1802	-0.8618
C	3.1611	0.7495	-1.8669
S	2.3390	2.0701	-2.5672
C	3.1766	3.1509	-1.5161
C	2.9508	4.6037	-1.5757
C	3.1329	5.3721	-0.4215
C	2.9268	6.7406	-0.4873
N	2.5625	7.3941	-1.6117
C	2.4109	6.6405	-2.7201
C	2.5894	5.2664	-2.7532
N	3.9861	2.5688	-0.6565
H	3.0065	-0.2695	-2.1958
H	3.4344	4.9064	0.5134
H	3.0569	7.3647	0.3916
H	2.1375	7.1861	-3.6182
H	2.4660	4.7377	-3.6915
X	2.4280	8.2839	-1.6218
X	4.4425	3.0371	-0.0381
X	5.5379	-0.5702	0.5220
0	1	S
1	2	S
1	3	S
3	4	D
3	13	S
4	5	S
4	14	S
5	6	S
6	7	S
6	13	S
7	8	D
7	12	S
8	9	S
8	15	S
9	10	S
9	16	S
10	11	S
11	12	D
11	17	S
12	18	S
10	19	S
13	20	S
21	0	S
