30
27	28	29
O	2.5574	-1.2488	-1.1118
C	3.2370	-0.4109	-0.4351
O	3.7057	0.6826	-0.8930
C	3.5178	-0.7391	1.0140
C	4.2411	0.1622	1.7953
C	4.5472	-0.1298	3.1172
C	4.1494	-1.3472	3.6780
C	3.4193	-2.3005	2.9411
C	3.0593	-3.6273	3.5322
C	2.8398	-4.7563	2.7315
C	2.5342	-6.0043	3.2907
C	2.4563	-6.2064	4.6840
C	2.0195	-7.5786	5.1630
O	1.0654	-7.6498	6.0043
O	2.5043	-8.5842	4.5330
C	2.7319	-5.1101	5.5252
C	2.8837	-5.2099	7.0346
O	2.4737	-4.2070	7.7202
O	3.5715	-6.1689	7.5122
C	2.9794	-3.8403	4.9279
C	3.0994	-1.9513	1.6056
H	5.1113	0.5839	3.7067
H	4.4398	-1.5515	4.7053
H	2.9164	-4.6961	1.6504
H	2.3522	-6.8524	2.6334
H	3.1334	-3.0123	5.6184
H	2.5174	-2.6312	0.9862
X	3.0142	-0.1504	-1.5851
X	1.6741	-8.6636	5.5418
X	3.0035	-5.2887	8.2260
0	1	S
1	2	S
1	3	S
3	4	D
3	20	S
4	5	S
5	6	D
5	21	S
6	7	S
6	22	S
7	8	S
7	20	D
8	9	D
8	19	S
9	10	S
9	23	S
10	11	D
10	24	S
11	12	S
11	15	S
12	13	S
12	14	S
15	16	S
15	19	D
16	17	S
16	18	S
19	25	S
20	26	S
27	0	S
28	13	S
29	17	S
