32
28	29	30	31
O	2.3797	1.2279	-0.4502
C	2.1044	0.0701	0.0250
O	1.1704	-0.6712	-0.4417
C	2.9267	-0.4433	1.1950
C	2.6936	-1.7001	1.7744
C	3.4623	-2.1691	2.8667
C	4.4997	-1.4183	3.4426
N	5.2830	-1.7902	4.4971
N	4.9653	-3.1058	5.1124
C	5.7034	-3.4702	6.1994
C	6.7493	-2.7395	6.7838
C	7.4596	-3.1985	7.9196
C	7.1564	-4.4239	8.5335
C	7.9120	-4.9257	9.7531
O	7.5746	-6.0553	10.2557
O	8.8552	-4.2035	10.2309
C	6.1137	-5.1643	7.9593
C	5.4135	-4.6945	6.8256
C	4.7227	-0.1647	2.8482
C	3.9627	0.3160	1.7572
H	1.9051	-2.3343	1.3834
H	3.2497	-3.1484	3.2878
H	7.0127	-1.7841	6.3372
H	8.2563	-2.5804	8.3198
H	5.8334	-6.1187	8.3917
H	4.6097	-5.2949	6.4088
H	5.5155	0.4539	3.2588
H	4.1882	1.2960	1.3505
X	5.9370	-1.2296	4.7580
X	4.3307	-3.6775	4.8289
X	1.4550	0.4756	-0.8990
X	8.5086	-5.3219	10.7160
0	1	S
1	2	S
1	3	S
3	4	D
3	19	S
4	5	S
4	20	S
5	6	D
5	21	S
6	7	S
6	18	S
7	8	S
8	9	S
9	10	D
9	17	S
10	11	S
10	22	S
11	12	D
11	23	S
12	13	S
12	16	S
13	14	S
13	15	S
16	17	D
16	24	S
17	25	S
18	19	D
18	26	S
19	27	S
7	28	S
8	29	S
30	0	S
31	14	S
