28
25	26	27
O	1.3191	0.0090	0.5512
C	2.3542	0.0067	-0.1850
O	2.8139	-1.0215	-0.7885
C	3.1157	1.3113	-0.3692
C	2.6702	2.5235	0.1972
C	3.3916	3.7210	0.0307
C	4.5802	3.6751	-0.7208
C	5.0957	2.4833	-1.2619
C	4.3268	1.3198	-1.0938
C	6.4320	2.4531	-1.9020
C	7.4689	3.2681	-1.4278
C	8.7257	3.1950	-2.0092
N	9.0409	2.3662	-3.0278
C	8.0347	1.5824	-3.4730
C	6.7427	1.5913	-2.9600
C	2.9580	5.0319	0.6651
O	3.6965	6.0524	0.4548
O	1.9003	5.0415	1.3746
H	1.7530	2.5313	0.7877
H	5.1191	4.6125	-0.8539
H	4.6758	0.3676	-1.4900
H	7.3089	3.9453	-0.5923
H	9.5349	3.8195	-1.6440
H	8.2997	0.9116	-4.2843
H	5.9935	0.9293	-3.3813
X	9.8661	2.3381	-3.3859
X	1.7537	-1.0220	-0.0397
X	2.6156	6.0672	1.1661
0	1	S
1	2	S
1	3	S
3	4	D
3	8	S
4	5	S
4	18	S
5	6	D
5	15	S
6	7	S
6	19	S
7	8	D
7	9	S
8	20	S
9	10	D
9	14	S
10	11	S
10	21	S
11	12	S
11	22	S
12	13	S
13	14	D
13	23	S
14	24	S
15	16	S
15	17	S
12	25	S
26	0	S
27	16	S
