30
26	27	28	29
C	1.0510	0.4247	0.2180
C	2.4270	0.2293	-0.2965
N	3.0891	1.2528	-0.9314
N	3.9344	0.7726	-1.7387
C	3.8666	-0.6016	-1.6805
C	4.6808	-1.4150	-2.6237
C	2.9718	-1.0131	-0.7745
C	2.6395	-2.3607	-0.4440
C	1.3028	-2.9429	-0.4426
C	0.2000	-2.5117	-1.3461
N	1.1903	-3.8930	0.4478
N	2.4715	-4.0430	1.0989
C	3.2903	-3.1660	0.5873
C	4.7289	-3.0478	0.9691
H	0.9695	1.3686	0.7670
H	0.7514	-0.3815	0.8928
H	0.3442	0.4602	-0.6181
H	5.2305	-0.7731	-3.3202
H	4.0353	-2.0655	-3.2225
H	5.4093	-2.0307	-2.0872
H	0.5907	-1.9429	-2.1936
H	-0.5115	-1.8967	-0.7900
H	-0.3198	-3.3938	-1.7277
H	4.9063	-3.5605	1.9197
H	5.0231	-2.0022	1.0712
H	5.3414	-3.5243	0.1965
X	2.9810	2.1405	-0.8296
X	4.4669	1.2939	-2.2434
X	0.4183	-4.3362	0.5804
X	2.7286	-4.6140	1.7453
0	1	S
0	14	S
0	15	S
0	16	S
1	2	S
1	6	S
2	3	S
3	4	S
4	5	S
4	6	D
5	17	S
5	18	S
5	19	S
6	7	S
7	8	S
7	12	S
8	9	S
8	10	S
9	20	S
9	21	S
9	22	S
10	11	S
11	12	S
12	13	S
13	23	S
13	24	S
13	25	S
2	26	S
3	27	S
10	28	S
11	29	S
