26
22	23	24	25
O	2.4031	-0.7078	1.1232
C	2.3489	-0.0375	0.0375
O	1.6839	1.0545	-0.0738
C	3.1007	-0.4895	-1.1943
C	2.9336	0.0079	-2.5009
C	1.9777	0.9693	-3.0758
O	1.6024	1.0637	-4.2519
O	1.5024	1.9325	-2.2324
N	3.8628	-0.6582	-3.2808
C	4.5441	-1.5281	-2.5069
C	5.6694	-2.4116	-2.9618
C	6.1350	-2.3405	-4.2702
C	7.1844	-3.1675	-4.6271
N	7.7850	-4.0480	-3.7893
C	7.2980	-4.0861	-2.5244
C	6.2597	-3.2980	-2.0652
N	4.0676	-1.4685	-1.2508
H	1.6626	1.6982	-1.2739
H	5.6861	-1.6479	-4.9740
H	7.5865	-3.1389	-5.6343
H	7.7817	-4.7939	-1.8601
H	5.9016	-3.3581	-1.0423
X	4.0034	-0.5426	-4.1622
X	8.4645	-4.5743	-4.0562
X	4.3454	-1.9893	-0.5713
X	1.7523	0.3212	1.0150
0	1	S
1	2	S
1	3	S
3	4	D
3	16	S
4	5	S
4	8	S
5	6	D
5	7	S
7	17	S
8	9	S
9	10	S
9	16	S
10	11	D
10	15	S
11	12	S
11	18	S
12	13	S
12	19	S
13	14	S
14	15	D
14	20	S
15	21	S
8	22	S
13	23	S
16	24	S
25	0	S
