34
30	31	32	33
O	2.9677	-1.0832	0.4689
C	2.3135	-0.0292	0.1777
O	1.1230	0.2006	0.5874
C	3.0025	1.0482	-0.6597
C	2.5286	2.3788	-0.6353
C	3.1573	3.4043	-1.3619
C	2.6939	4.8559	-1.2625
O	3.3533	5.7426	-1.9035
O	1.6840	5.1262	-0.5256
C	4.2679	3.0486	-2.1597
C	4.8133	1.7356	-2.2127
C	6.1164	1.4715	-2.9310
C	7.1160	2.4801	-2.8450
C	8.4074	2.3446	-3.3811
C	8.8042	1.1684	-4.0115
C	10.2189	1.0129	-4.5524
O	10.5557	-0.0912	-5.0952
O	11.0097	2.0132	-4.4355
C	7.8314	0.1558	-4.1242
C	6.4898	0.2922	-3.6289
C	5.5437	-0.8529	-3.9778
O	6.0181	-2.0382	-3.9312
O	4.3778	-0.5632	-4.4037
C	4.1479	0.7547	-1.4444
H	1.6618	2.6175	-0.0206
H	4.7347	3.8450	-2.7389
H	6.8990	3.4092	-2.3219
H	9.1135	3.1646	-3.2847
H	8.1053	-0.7735	-4.6216
H	4.5233	-0.2670	-1.4358
X	1.7726	-0.8750	0.8351
X	2.3297	5.9966	-1.1844
X	11.3339	0.8903	-4.9787
X	4.7996	-1.7535	-4.2522
0	1	S
1	2	S
1	3	S
3	4	D
3	23	S
4	5	S
4	24	S
5	6	S
5	9	D
6	7	S
6	8	S
9	10	S
9	25	S
10	11	S
10	23	D
11	12	D
11	19	S
12	13	S
12	26	S
13	14	D
13	27	S
14	15	S
14	18	S
15	16	S
15	17	S
18	19	D
18	28	S
19	20	S
20	21	S
20	22	S
23	29	S
30	0	S
31	7	S
32	16	S
33	21	S
