29
26	27	28
O	1.3641	1.5894	-1.1176
C	1.3593	1.0293	0.0252
O	0.5542	0.1178	0.3981
C	2.3936	1.4970	1.0307
C	2.4531	0.9484	2.3180
C	3.3698	1.4275	3.2575
C	4.2813	2.4477	2.9598
C	5.1780	3.0127	3.9956
C	5.5142	4.3735	3.9061
C	6.3029	5.0304	4.8546
C	6.8005	4.3470	5.9693
C	7.6526	5.0523	7.0031
O	8.0764	4.3507	7.9735
O	7.8816	6.2886	6.8195
C	6.4898	2.9863	6.0915
C	5.7002	2.3431	5.1176
N	5.4931	0.9209	5.3112
O	6.0473	0.1501	4.5140
O	4.8254	0.5730	6.2978
C	4.2410	2.9675	1.6528
C	3.3123	2.5054	0.7090
H	1.7669	0.1519	2.5963
H	6.5260	6.0883	4.7262
H	6.8735	2.4342	6.9499
H	4.9216	3.7592	1.3478
H	3.2893	2.9444	-0.2875
X	0.5408	0.6592	-0.7705
X	8.3280	5.6113	7.8225
X	5.3217	-0.2559	5.4714
0	1	S
1	2	S
1	3	S
3	4	D
3	20	S
4	5	S
4	21	S
5	6	D
6	7	S
6	19	S
7	8	D
7	15	S
8	9	S
9	10	D
9	22	S
10	11	S
10	14	S
11	12	S
11	13	S
14	15	D
14	23	S
15	16	S
16	17	S
16	18	S
19	20	D
19	24	S
20	25	S
26	0	S
27	12	S
28	17	S
