12
9	10	11
N	1.1647	-0.0472	-0.2587
C	2.5221	-0.0551	-0.1939
N	3.2969	1.0364	-0.0902
N	4.5905	0.5925	0.0081
C	4.5159	-0.7518	-0.0328
N	3.2447	-1.1693	-0.1190
H	0.7384	0.8023	0.0719
H	0.7310	-0.8954	0.0674
H	5.3758	-1.4027	0.0059
X	3.0088	1.8890	-0.0872
X	5.3396	1.0855	0.0843
X	2.9412	-2.0166	-0.1253
0	1	S
0	6	S
0	7	S
1	2	S
1	5	S
2	3	S
3	4	S
4	5	S
4	8	S
2	9	S
3	10	S
5	11	S
