44
28	29	30	31	32	33	34	35	36	37	38	39	40	41	42	43
C	1.3259	-0.1979	-0.1787
C	0.4901	-1.3472	-0.0826
C	1.1983	-2.6962	-0.2116
N	2.4812	-2.9005	0.2236
N	2.7693	-4.1868	-0.0887
N	1.7450	-4.7069	-0.7918
N	0.7631	-3.7753	-0.9120
C	-0.8878	-1.1454	0.0536
C	-1.9580	-2.2343	0.1654
N	-1.8276	-3.4513	0.7532
N	-3.0498	-4.0368	0.6590
N	-3.9106	-3.1798	0.0787
N	-3.2646	-2.0208	-0.1900
C	-1.3556	0.1955	0.1775
C	-0.5178	1.3433	0.1234
C	-1.2287	2.6927	0.2584
N	-2.3843	2.8462	0.9792
N	-2.7276	4.1486	0.8443
N	-1.8717	4.7413	-0.0095
N	-0.9454	3.8345	-0.4196
C	0.8490	1.1469	-0.1034
C	1.9110	2.2406	-0.2127
N	1.9750	3.3867	0.5136
N	3.1087	4.0136	0.1051
N	3.7458	3.2401	-0.7947
N	3.0504	2.0893	-0.9579
H	2.3984	-0.3505	-0.3207
H	-2.4278	0.3533	0.3195
X	3.0242	-2.3100	0.6316
X	3.5220	-4.6263	0.1354
X	1.7206	-5.5418	-1.1270
X	-0.0126	-3.8560	-1.3612
X	-1.0858	-3.7976	1.1272
X	-3.2577	-4.8666	0.9386
X	-4.7755	-3.3531	-0.1001
X	-3.6258	-1.2704	-0.5312
X	-2.8282	2.2183	1.4468
X	-3.4159	4.5560	1.2569
X	-1.9122	5.6034	-0.2646
X	-0.2832	3.9632	-1.0153
X	1.3893	3.6710	1.1350
X	3.3943	4.8190	0.3876
X	4.5103	3.4566	-1.2173
X	3.2928	1.3784	-1.4538
0	1	D
0	20	S
0	26	S
1	2	S
1	7	S
2	3	S
2	6	S
3	4	S
4	5	S
5	6	S
7	8	S
7	13	D
8	9	S
8	12	S
9	10	S
10	11	S
11	12	S
13	14	S
13	27	S
14	15	S
14	20	D
15	16	S
15	19	S
16	17	S
17	18	S
18	19	S
20	21	S
21	22	S
21	25	S
22	23	S
23	24	S
24	25	S
3	28	S
4	29	S
5	30	S
6	31	S
9	32	S
10	33	S
11	34	S
12	35	S
16	36	S
17	37	S
18	38	S
19	39	S
22	40	S
23	41	S
24	42	S
25	43	S
