42
36	37	38	39	40	41
O	4.4535	0.1370	-3.1485
C	3.4513	-0.5950	-2.8538
O	2.3205	-0.5314	-3.4377
C	3.6259	-1.6029	-1.7266
C	2.5637	-2.4232	-1.2933
C	2.7180	-3.3607	-0.2478
C	1.5637	-4.2467	0.1999
O	1.7769	-5.0559	1.1639
O	0.4473	-4.1387	-0.4065
C	3.9855	-3.4704	0.3616
C	5.0742	-2.6941	-0.0645
C	6.3948	-2.8979	0.5133
C	7.5916	-2.6297	-0.1103
N	8.5683	-3.0163	0.7792
C	9.9805	-2.9352	0.6267
C	10.5382	-2.3516	-0.5242
C	11.9312	-2.2285	-0.6827
C	12.5069	-1.5630	-1.9260
O	13.7754	-1.4546	-2.0176
O	11.6823	-1.1526	-2.8068
C	12.7603	-2.7270	0.3436
C	12.2351	-3.3319	1.5074
C	13.1513	-3.8659	2.6012
O	12.6033	-4.3940	3.6255
O	14.4115	-3.7608	2.4402
C	10.8325	-3.4239	1.6322
N	7.9728	-3.5116	1.8995
N	6.6527	-3.4440	1.7425
C	4.8727	-1.7539	-1.0911
H	1.5953	-2.3331	-1.7855
H	4.1181	-4.1989	1.1608
H	7.8148	-2.2346	-1.0878
H	9.9148	-1.9612	-1.3260
H	13.8417	-2.6377	0.2350
H	10.4257	-3.8857	2.5314
H	5.6928	-1.1190	-1.4257
X	8.3875	-3.8337	2.6305
X	6.0489	-3.7160	2.3520
X	3.3137	0.1996	-3.7424
X	0.6539	-4.9451	0.5528
X	12.9604	-1.0387	-2.9055
X	13.8730	-4.2865	3.4628
0	1	S
1	2	S
1	3	S
3	4	D
3	28	S
4	5	S
4	29	S
5	6	S
5	9	D
6	7	S
6	8	S
9	10	S
9	30	S
10	11	S
10	28	D
11	12	D
11	27	S
12	13	S
12	31	S
13	14	S
13	26	S
14	15	D
14	25	S
15	16	S
15	32	S
16	17	S
16	20	D
17	18	S
17	19	S
20	21	S
20	33	S
21	22	S
21	25	D
22	23	S
22	24	S
25	34	S
26	27	S
28	35	S
26	36	S
27	37	S
38	0	S
39	7	S
40	18	S
41	23	S
