30
26	27	28	29
O	1.3434	0.7123	-0.3415
C	2.1552	-0.2217	-0.0284
O	2.0690	-1.4213	-0.4840
C	3.0390	-0.0170	1.1980
C	2.6609	-0.8648	2.2566
C	3.2281	-0.7601	3.5083
C	4.2547	0.1591	3.7734
C	4.5301	0.3428	5.2740
O	4.5926	1.5331	5.7388
O	4.4295	-0.6973	6.0262
C	4.8224	0.9366	2.6922
C	6.0325	1.7212	2.8315
C	7.0979	1.5751	3.9307
O	7.7949	2.6185	4.2206
O	7.4106	0.4012	4.3317
C	6.4029	2.6158	1.8143
C	5.6903	2.7039	0.6373
C	4.5936	1.8631	0.3670
C	4.0639	2.0672	-1.0476
O	4.2532	1.1297	-1.8984
O	3.7341	3.2656	-1.3759
C	4.1275	0.9270	1.3727
H	1.8519	-1.5742	2.0978
H	2.8334	-1.3658	4.3198
H	7.2976	3.2204	1.9358
H	6.0187	3.4017	-0.1294
X	1.4600	-0.3827	-0.9931
X	4.7452	0.4863	6.4458
X	7.9293	1.4611	4.7885
X	3.6469	2.2279	-2.1613
0	1	S
1	2	S
1	3	S
3	4	D
3	21	S
4	5	S
4	22	S
5	6	D
5	23	S
6	7	S
6	10	S
7	8	S
7	9	S
10	11	S
10	21	D
11	12	S
11	15	D
12	13	S
12	14	S
15	16	S
15	24	S
16	17	D
16	25	S
17	18	S
17	21	S
18	19	S
18	20	S
26	0	S
27	8	S
28	13	S
29	19	S
