16
13	14	15
C	1.0017	0.0533	-0.0855
C	2.5195	0.1383	-0.0836
C	3.0023	1.5254	-0.2374
N	3.3059	2.0918	-1.4231
N	3.7350	3.3613	-1.1424
C	3.6676	3.4960	0.1960
N	3.2183	2.3749	0.7799
H	0.6816	-0.9890	0.0154
H	0.5812	0.4482	-1.0169
H	0.5700	0.6216	0.7453
H	2.9231	-0.4779	-0.8959
H	2.9090	-0.2760	0.8537
H	3.9434	4.3966	0.7243
X	3.2367	1.7038	-2.2322
X	4.0093	3.9883	-1.7268
X	3.0903	2.2259	1.6582
0	1	S
0	7	S
0	8	S
0	9	S
1	2	S
1	10	S
1	11	S
2	3	S
2	6	S
3	4	S
4	5	S
5	6	S
5	12	S
3	13	S
4	14	S
6	15	S
