24
18	19	20	21	22	23
C	-3.1979	4.8132	-7.4611
C	-2.2582	3.8179	-7.5786
N	-1.6675	3.2795	-6.4921
C	-2.0107	3.7553	-5.2636
C	-2.9751	4.7776	-5.1425
N	-3.5659	5.2914	-6.2531
C	-3.3224	5.2622	-3.8848
N	-4.2795	6.2221	-3.7684
C	-4.5809	6.6859	-2.5380
C	-3.9346	6.2178	-1.4200
N	-2.9842	5.2641	-1.5078
C	-2.6725	4.7674	-2.7350
C	-1.7197	3.7587	-2.8534
N	-1.0979	3.2781	-1.7436
C	-0.2031	2.2786	-1.8868
C	0.0838	1.7480	-3.1209
N	-0.5033	2.2197	-4.2401
C	-1.4032	3.2317	-4.1244
X	-1.0611	2.6209	-6.5843
X	-4.1898	5.9369	-6.1897
X	-4.7057	6.5446	-4.4925
X	-2.5688	4.9669	-0.7668
X	-1.2755	3.6157	-0.9284
X	-0.2999	1.8683	-5.0433
0	1	D
0	5	S
1	2	S
2	3	S
3	4	S
3	17	S
4	5	S
4	6	S
6	7	S
6	11	S
7	8	S
8	9	D
9	10	S
10	11	S
11	12	S
12	13	S
12	17	D
13	14	S
14	15	S
15	16	S
16	17	S
2	18	S
5	19	S
7	20	S
10	21	S
13	22	S
16	23	S
