16
12	13	14	15
O	2.6726	0.8516	0.7144
C	2.1562	0.0867	-0.1626
O	1.0416	0.3329	-0.7477
C	2.9283	-1.1230	-0.6536
N	2.6586	-1.7301	-1.9094
C	3.5950	-2.6283	-2.0872
N	4.4521	-2.6549	-1.0392
C	4.0056	-1.7858	-0.0769
C	4.6648	-1.7874	1.2312
O	5.7879	-2.4057	1.2153
O	4.0904	-1.3471	2.2650
H	3.6974	-3.2731	-2.9459
X	3.7443	-2.1172	-1.1803
X	1.9982	-1.5707	-2.4997
X	1.5453	1.0438	0.2259
X	5.2048	-1.7887	2.3028
0	1	S
1	2	S
1	3	S
3	4	S
3	7	D
4	5	S
5	6	S
5	11	S
6	7	S
7	8	S
8	9	S
8	10	S
6	12	S
4	13	S
14	0	S
15	9	S
