39
33	34	35	36	37	38
C	1.3760	0.2477	0.1216
C	2.8519	0.1633	-0.0191
N	3.4898	-0.9879	-0.0858
N	4.8234	-0.7358	-0.0692
C	5.0139	0.5751	-0.0237
C	6.3326	1.1961	-0.0576
N	6.5020	2.2876	-0.8195
C	7.6386	2.9763	-0.6114
C	8.6471	2.5445	0.2204
C	8.4167	1.3453	0.8554
N	7.2742	0.6480	0.7406
N	3.7701	1.2218	0.0312
C	3.4742	2.6222	0.1622
C	2.2785	3.1486	-0.3414
C	1.9414	4.5124	-0.2183
C	0.5899	4.9981	-0.7226
O	0.3259	6.2375	-0.6493
O	-0.2030	4.1077	-1.1825
C	2.8839	5.3773	0.3660
C	4.1139	4.8957	0.8552
C	5.1757	5.8272	1.4247
O	6.3037	5.3074	1.7273
O	4.8931	7.0604	1.5532
C	4.3620	3.5070	0.7868
H	0.9656	-0.7520	0.3065
H	0.9050	0.6027	-0.7992
H	1.0835	0.8756	0.9669
H	7.6997	3.9363	-1.1161
H	9.5385	3.1270	0.3864
H	9.1569	0.9138	1.5213
H	1.5717	2.5417	-0.8943
H	2.6595	6.4423	0.4367
H	5.2824	3.1637	1.2506
X	3.0906	-1.7931	-0.1336
X	5.4836	-1.3473	-0.0859
X	5.8923	2.5415	-1.4309
X	7.1482	-0.1332	1.1693
X	-0.4756	5.3810	-1.1202
X	6.0123	6.5612	1.8734
0	1	S
0	24	S
0	25	S
0	26	S
1	2	S
1	11	S
2	3	S
3	4	S
4	5	S
4	11	S
5	6	S
5	10	S
6	7	S
7	8	D
7	27	S
8	9	S
8	28	S
9	10	S
9	29	S
11	12	S
12	13	D
12	23	S
13	14	S
13	30	S
14	15	S
14	18	D
15	16	S
15	17	S
18	19	S
18	31	S
19	20	S
19	23	D
20	21	S
20	22	S
23	32	S
2	33	S
3	34	S
6	35	S
10	36	S
37	16	S
38	21	S
