18
14	15	16	17
C	1.2145	1.3533	-0.0321
N	2.3911	0.6926	-0.0106
N	2.3960	-0.6699	-0.0094
C	1.2247	-1.3396	-0.0291
C	-0.0074	-0.6949	-0.0507
C	-1.2345	-1.3487	-0.0707
N	-2.4110	-0.6874	-0.0881
N	-2.4157	0.6750	-0.0908
C	-1.2441	1.3446	-0.0754
C	-0.0123	0.6996	-0.0527
H	1.2991	2.4347	-0.0312
H	1.3177	-2.4204	-0.0265
H	-1.3195	-2.4300	-0.0741
H	-1.3364	2.4251	-0.0829
X	3.1631	1.1550	0.0028
X	3.1714	-1.1266	0.0044
X	-3.1833	-1.1495	-0.0978
X	-3.1911	1.1317	-0.1027
0	1	S
0	9	S
0	10	S
1	2	S
2	3	S
3	4	S
3	11	S
4	5	S
4	9	D
5	6	S
5	12	S
6	7	S
7	8	S
8	9	S
8	13	S
1	14	S
2	15	S
6	16	S
7	17	S
