28
25	26	27
O	4.1765	1.4457	-2.4376
C	4.5761	0.9718	-1.3363
O	4.9956	-0.1968	-1.0813
C	4.5291	1.9579	-0.1213
C	4.4037	3.3182	-0.1490
C	4.2888	4.0395	1.1307
C	4.2282	3.1223	2.3298
N	3.3775	3.4713	3.2437
C	2.8712	4.7055	2.7740
C	1.9335	5.4471	3.4627
C	1.7151	6.7594	3.0618
C	2.4494	7.3335	1.9966
C	2.3581	8.8380	1.7833
O	3.1415	9.3529	0.9228
O	1.5311	9.4829	2.5055
C	3.3007	6.5051	1.2133
C	3.4654	5.1749	1.5805
C	5.0503	1.8907	2.2367
C	4.5069	1.2588	1.1792
H	4.3325	3.8511	-1.0878
H	1.4257	5.0273	4.3201
H	1.0193	7.3804	3.6237
H	3.8703	6.9478	0.3998
H	6.0865	2.2219	2.1192
H	3.5307	0.7819	1.3149
X	3.1928	2.9966	3.9857
X	4.6121	0.2159	-2.2676
X	2.2861	10.0240	1.6152
0	1	S
1	2	S
1	3	S
3	4	D
3	18	S
4	5	S
4	19	S
5	6	S
5	16	S
6	7	S
6	17	S
7	8	S
8	9	S
8	16	D
9	10	D
9	20	S
10	11	S
10	21	S
11	12	S
11	15	D
12	13	S
12	14	S
15	16	S
15	22	S
17	18	D
17	23	S
18	24	S
7	25	S
26	0	S
27	13	S
