32
28	29	30	31
O	1.2682	-0.6744	0.2830
C	2.2394	0.0993	-0.0285
O	2.5561	0.3669	-1.2405
C	3.0575	0.7279	1.0864
C	2.7768	0.4888	2.4406
C	3.5506	1.0689	3.4733
C	4.6363	1.9209	3.2211
C	4.9043	2.1511	1.8601
C	4.1394	1.5781	0.8184
N	5.4256	2.5266	4.1557
N	5.0606	2.2791	5.5774
C	5.8086	2.9201	6.5202
C	6.9065	3.7614	6.2820
C	7.6266	4.3920	7.3249
C	7.2819	4.2117	8.6729
C	6.1820	3.3783	8.9258
C	5.4751	2.7510	7.8748
C	8.0506	4.8768	9.8018
O	7.6707	4.6622	11.0068
O	9.0486	5.6244	9.5080
H	1.9468	-0.1548	2.7120
H	3.3039	0.8541	4.5102
H	5.7381	2.8021	1.6131
H	4.3981	1.8055	-0.2107
H	7.2024	3.9273	5.2493
H	8.4627	5.0324	7.0648
H	5.8632	3.2102	9.9478
H	4.6298	2.1101	8.1103
X	6.1110	3.0332	3.8665
X	4.3939	1.7469	5.8643
X	1.5931	-0.3973	-0.9093
X	8.6578	5.4022	10.6936
0	1	S
1	2	S
1	3	S
3	4	D
3	8	S
4	5	S
4	20	S
5	6	D
5	21	S
6	7	S
6	9	S
7	8	D
7	22	S
8	23	S
9	10	S
10	11	S
11	12	D
11	16	S
12	13	S
12	24	S
13	14	D
13	25	S
14	15	S
14	17	S
15	16	D
15	26	S
16	27	S
17	18	S
17	19	S
9	28	S
10	29	S
30	0	S
31	18	S
