36
32	33	34	35
O	2.6786	0.1542	1.3301
C	2.2412	0.0857	0.1334
O	1.1883	0.6780	-0.2756
C	3.0191	-0.7516	-0.8721
C	2.5918	-0.8606	-2.2124
C	3.3202	-1.6040	-3.1526
C	2.8943	-1.6450	-4.5301
C	2.5375	-1.6312	-5.6830
C	2.0910	-1.5640	-7.0524
C	2.7592	-2.2702	-8.0635
C	2.3337	-2.2030	-9.4080
C	3.0590	-2.9788	-10.5006
O	2.6309	-2.8806	-11.6986
O	4.0595	-3.6924	-10.1577
C	1.2146	-1.3957	-9.7084
C	0.5207	-0.6731	-8.7139
C	-0.6854	0.1897	-9.0588
O	-1.2610	0.8129	-8.1061
O	-1.0607	0.2455	-10.2767
C	0.9805	-0.7748	-7.3849
C	4.4816	-2.2763	-2.7461
C	4.9412	-2.2082	-1.4133
C	6.2032	-2.9417	-0.9801
O	6.5769	-2.8385	0.2354
O	6.8222	-3.6271	-1.8605
C	4.1974	-1.4330	-0.4976
H	1.6833	-0.3424	-2.5162
H	3.6251	-2.8827	-7.8172
H	0.8741	-1.3286	-10.7423
H	0.4571	-0.2222	-6.6059
H	5.0526	-2.8578	-3.4679
H	4.5463	-1.3543	0.5328
X	1.6280	0.7458	0.9260
X	3.6302	-3.5898	-11.3611
X	-1.6360	0.8697	-9.3306
X	7.1978	-3.5198	-0.6387
0	1	S
1	2	S
1	3	S
3	4	D
3	25	S
4	5	S
4	26	S
5	6	S
5	20	D
6	7	A
7	8	S
8	9	D
8	19	S
9	10	S
9	27	S
10	11	S
10	14	D
11	12	S
11	13	S
14	15	S
14	28	S
15	16	S
15	19	D
16	17	S
16	18	S
19	29	S
20	21	S
20	30	S
21	22	S
21	25	D
22	23	S
22	24	S
25	31	S
32	0	S
33	12	S
34	17	S
35	23	S
