36
27	28	29	30	31	32	33	34	35
C	0.2852	0.2229	1.2112
C	1.0734	0.3498	0.0884
C	2.4615	0.9366	0.0138
C	3.2853	0.5899	-1.0685
C	4.5824	1.1056	-1.1698
C	5.4795	0.7418	-2.3282
C	5.1711	-0.0729	-3.3985
N	6.2116	-0.1505	-4.2509
N	7.1631	0.6367	-3.6878
N	6.7505	1.1811	-2.5095
C	5.0442	1.9971	-0.1934
C	4.2133	2.3966	0.8647
C	4.6644	3.4609	1.8353
C	5.8583	4.1607	1.7922
N	5.9111	5.0644	2.7907
N	4.7276	4.9172	3.4376
N	3.9573	3.9349	2.8880
C	2.9296	1.8361	0.9853
N	0.3903	-0.1921	-0.9510
N	-0.8193	-0.5581	-0.4406
N	-0.8916	-0.3553	0.9011
H	0.5445	0.4887	2.2244
H	2.8946	-0.1013	-1.8087
H	4.2443	-0.5927	-3.5850
H	6.0530	2.3896	-0.2930
H	6.6607	4.0551	1.0804
H	2.2878	2.1609	1.8002
X	6.2598	-0.6190	-5.0178
X	7.9729	0.7808	-4.0530
X	7.2208	1.7200	-1.9633
X	6.5813	5.6341	2.9813
X	4.4824	5.4128	4.1477
X	3.1472	3.6562	3.1639
X	0.6781	-0.2883	-1.7983
X	-1.4930	-0.8951	-0.9331
X	-1.5676	-0.5585	1.4594
0	1	D
0	20	S
0	21	S
1	2	S
1	18	S
2	3	D
2	17	S
3	4	S
3	22	S
4	5	S
4	10	D
5	6	D
5	9	S
6	7	S
6	23	S
7	8	S
8	9	S
10	11	S
10	24	S
11	12	S
11	17	D
12	13	D
12	16	S
13	14	S
13	25	S
14	15	S
15	16	S
17	26	S
18	19	S
19	20	S
7	27	S
8	28	S
9	29	S
14	30	S
15	31	S
16	32	S
18	33	S
19	34	S
20	35	S
