36
27	28	29	30	31	32	33	34	35
C	0.2788	0.2782	1.2013
C	1.0861	0.3311	0.0843
C	2.4667	0.9405	-0.0144
C	3.2788	0.6085	-1.1105
C	4.5722	1.1371	-1.2170
C	5.4766	0.7703	-2.3729
C	5.1740	-0.0485	-3.4414
N	6.2244	-0.1379	-4.2813
N	7.1771	0.6410	-3.7089
N	6.7508	1.2033	-2.5441
C	5.0371	2.0307	-0.2409
C	4.2171	2.4075	0.8332
C	4.6793	3.4484	1.8282
C	5.8739	4.1431	1.8095
N	5.9296	5.0145	2.8361
N	4.7451	4.8516	3.4778
N	3.9717	3.8911	2.8977
C	2.9375	1.8387	0.9568
N	0.4276	-0.2965	-0.9220
N	-0.7852	-0.6418	-0.4059
N	-0.8870	-0.3343	0.9125
H	0.5090	0.6280	2.1949
H	2.8899	-0.0831	-1.8517
H	4.2467	-0.5631	-3.6360
H	6.0408	2.4328	-0.3473
H	6.6821	4.0539	1.1013
H	2.3116	2.1392	1.7924
X	6.2773	-0.6085	-5.0467
X	7.9955	0.7696	-4.0605
X	7.2155	1.7488	-1.9996
X	6.6019	5.5752	3.0448
X	4.5010	5.3251	4.2032
X	3.1607	3.6075	3.1657
X	0.7309	-0.4510	-1.7551
X	-1.4439	-1.0288	-0.8816
X	-1.5737	-0.4995	1.4703
0	1	D
0	20	S
0	21	S
1	2	S
1	18	S
2	3	D
2	17	S
3	4	S
3	22	S
4	5	S
4	10	D
5	6	D
5	9	S
6	7	S
6	23	S
7	8	S
8	9	S
10	11	S
10	24	S
11	12	S
11	17	D
12	13	D
12	16	S
13	14	S
13	25	S
14	15	S
15	16	S
17	26	S
18	19	S
19	20	S
7	27	S
8	28	S
9	29	S
14	30	S
15	31	S
16	32	S
18	33	S
19	34	S
20	35	S
