36
27	28	29	30	31	32	33	34	35
C	-0.0539	0.9849	-0.6408
N	1.0213	0.1783	-0.4457
N	0.6492	-0.8687	0.1595
N	-0.7547	-0.8212	0.4550
C	-1.1747	0.3065	-0.0400
C	-2.5214	0.8722	0.0247
C	-3.3740	0.4970	1.0693
C	-4.6352	1.0979	1.1948
C	-5.5197	0.7362	2.3616
C	-6.7893	1.2083	2.6254
N	-7.2544	0.6890	3.7746
N	-6.2485	-0.1095	4.2107
N	-5.1866	-0.1146	3.3593
C	-5.0428	2.0620	0.2618
C	-4.1946	2.4301	-0.7891
C	-4.5896	3.5025	-1.7702
N	-3.8425	3.8957	-2.8272
N	-4.5558	4.8843	-3.4287
N	-5.7237	5.1397	-2.7871
C	-5.7328	4.2763	-1.7565
C	-2.9398	1.8221	-0.9142
H	0.0205	2.0176	-0.9312
H	-3.0534	-0.2394	1.8046
H	-7.3772	1.8991	2.0442
H	-6.0113	2.5366	0.3617
H	-6.5436	4.2538	-1.0466
H	-2.3022	2.1100	-1.7475
X	1.8764	0.3203	-0.6880
X	1.2539	-1.5101	0.3410
X	-1.2877	-1.4064	0.8833
X	-8.0527	0.8405	4.1616
X	-6.2818	-0.5813	4.9764
X	-4.4225	-0.5834	3.4394
X	-3.0418	3.5693	-3.0769
X	-4.2854	5.3204	-4.1681
X	-6.3531	5.7474	-2.9984
0	1	S
0	4	S
0	21	S
1	2	S
2	3	S
3	4	S
4	5	S
5	6	D
5	20	S
6	7	S
6	22	S
7	8	S
7	13	D
8	9	D
8	12	S
9	10	S
9	23	S
10	11	S
11	12	S
13	14	S
13	24	S
14	15	S
14	20	D
15	16	S
15	19	S
16	17	S
17	18	S
18	19	S
19	25	S
20	26	S
1	27	S
2	28	S
3	29	S
10	30	S
11	31	S
12	32	S
16	33	S
17	34	S
18	35	S
