18
15	16	17
O	2.5921	0.9442	0.7312
C	2.2648	-0.0007	-0.0601
O	1.2790	0.0747	-0.8806
C	3.0728	-1.3284	-0.0580
C	2.6474	-2.3419	-0.9256
C	3.3221	-3.5548	-0.9643
C	4.4169	-3.7440	-0.1321
C	4.8306	-2.7224	0.7315
C	6.0563	-3.0105	1.6441
O	6.4760	-2.1152	2.4482
O	6.5967	-4.1708	1.5360
N	4.1607	-1.5218	0.7615
H	1.7852	-2.1749	-1.5643
H	2.9962	-4.3436	-1.6313
H	4.9559	-4.6866	-0.1436
X	4.4328	-0.8660	1.3146
X	1.6410	1.0244	-0.0617
X	7.0021	-3.2328	2.3483
0	1	S
1	2	S
1	3	S
3	4	D
3	11	S
4	5	S
4	12	S
5	6	D
5	13	S
6	7	S
6	14	S
7	8	S
7	11	S
8	9	S
8	10	S
11	15	S
16	0	S
17	9	S
