18
14	15	16	17
C	-1.1221	0.0239	0.1837
N	-0.3825	-1.0594	0.1279
N	0.9144	-0.6673	-0.0865
C	0.9279	0.6436	-0.1555
N	-0.3406	1.1357	0.0077
N	-0.7253	2.4040	-0.0023
C	-1.9873	2.8987	0.1976
N	-1.9755	4.2085	0.1120
N	-0.6862	4.5969	-0.1496
C	0.0508	3.5127	-0.2154
H	-2.1911	0.0400	0.3412
H	1.8088	1.2491	-0.3135
H	-2.8614	2.2963	0.3997
H	1.1133	3.4935	-0.4130
X	-0.6989	-1.8971	0.2180
X	1.6431	-1.1890	-0.1691
X	-2.7009	4.7317	0.2119
X	-0.3726	5.4331	-0.2608
0	1	S
0	4	S
0	10	S
1	2	S
2	3	S
3	4	S
3	11	S
4	5	S
5	6	S
5	9	S
6	7	S
6	12	S
7	8	S
8	9	S
9	13	S
1	14	S
2	15	S
7	16	S
8	17	S
