24
20	21	22	23
O	2.7392	1.1891	-0.6164
C	2.2287	0.1505	-0.0713
O	0.9821	-0.1502	-0.2020
C	3.1408	-0.9116	0.5510
C	2.7819	-2.2591	0.3357
C	3.5485	-3.3070	0.8381
C	4.7850	-3.0753	1.4702
C	5.5163	-4.3025	2.0313
O	6.0072	-4.2557	3.2133
O	5.4064	-5.4035	1.3709
C	5.2547	-1.7240	1.5888
C	6.7797	-1.5541	1.7316
O	7.2855	-0.7549	2.5865
O	7.5037	-2.2572	0.9278
C	4.3373	-0.6304	1.2916
C	4.3987	0.7388	1.9837
O	5.4232	1.4989	1.8642
O	3.3796	1.0554	2.6989
H	1.8657	-2.4703	-0.2062
H	3.2040	-4.3285	0.7116
X	1.5143	0.9824	-0.5587
X	6.0881	-5.2620	2.4700
X	7.9672	-1.4218	1.8428
X	4.4467	1.8089	2.5246
0	1	S
1	2	S
1	3	S
3	4	D
3	14	S
4	5	S
4	18	S
5	6	D
5	19	S
6	7	S
6	10	S
7	8	S
7	9	S
10	11	S
10	14	D
11	12	S
11	13	S
14	15	S
15	16	S
15	17	S
20	0	S
21	8	S
22	12	S
23	16	S
