40
35	36	37	38	39
C	0.5263	1.2523	-0.1138
C	1.2673	0.1330	0.2417
C	0.6708	-1.1240	0.1974
C	-0.6753	-1.2162	-0.1532
N	-1.3452	-2.4683	-0.0784
C	-1.2311	-3.4247	0.9362
C	-0.4580	-3.3300	2.1875
C	-0.2961	-2.1312	2.8903
C	0.5664	-2.1011	3.9742
N	1.2086	-3.1867	4.4451
C	0.9605	-4.3566	3.8199
C	0.1514	-4.4761	2.7013
N	-1.9822	-4.4616	0.6175
N	-2.6631	-4.1702	-0.5296
C	-2.2991	-2.9757	-0.9663
C	-2.8075	-2.3811	-2.2140
C	-4.0966	-2.7196	-2.6522
C	-4.5932	-2.1450	-3.8112
N	-3.9058	-1.2608	-4.5631
C	-2.6562	-0.9714	-4.1519
C	-2.0629	-1.5268	-3.0282
N	-1.3985	-0.1346	-0.5300
C	-0.7863	1.0688	-0.5093
H	0.9635	2.2446	-0.0883
H	2.3014	0.2363	0.5606
H	1.2656	-1.9990	0.4498
H	-0.7952	-1.2130	2.5970
H	0.7757	-1.1718	4.4973
H	1.4521	-5.2243	4.2507
H	0.0072	-5.4475	2.2378
H	-4.7096	-3.4251	-2.0976
H	-5.5868	-2.3887	-4.1781
H	-2.1198	-0.2518	-4.7646
H	-1.0392	-1.2550	-2.8046
H	-1.4014	1.9072	-0.8243
X	1.7750	-3.1331	5.1424
X	-2.0225	-5.2245	1.0933
X	-3.2686	-4.6935	-0.9413
X	-4.2616	-0.8844	-5.2991
X	-2.2578	-0.2130	-0.7858
0	1	D
0	22	S
0	23	S
1	2	S
1	24	S
2	3	D
2	25	S
3	4	S
3	21	S
4	5	S
4	14	S
5	6	S
5	12	S
6	7	D
6	11	S
7	8	S
7	26	S
8	9	S
8	27	S
9	10	S
10	11	D
10	28	S
11	29	S
12	13	S
13	14	S
14	15	S
15	16	D
15	20	S
16	17	S
16	30	S
17	18	S
17	31	S
18	19	S
19	20	D
19	32	S
20	33	S
21	22	S
22	34	S
9	35	S
12	36	S
13	37	S
18	38	S
21	39	S
