36
32	33	34	35
C	1.2025	-0.5961	0.9459
C	2.3762	-0.0672	0.1677
N	3.0417	1.0551	0.5123
N	2.3844	1.8878	1.4552
C	3.0572	2.9986	1.8135
C	4.2223	3.5471	1.0406
C	2.6037	3.6563	3.0541
C	1.8476	2.9368	3.9904
C	1.4095	3.5297	5.1657
C	1.7521	4.8485	5.3779
N	2.4838	5.6056	4.5301
C	2.8866	4.9789	3.3870
C	2.8495	-0.7582	-1.0526
C	3.9290	-0.2417	-1.7794
C	4.3707	-0.8552	-2.9425
C	3.7122	-1.9950	-3.3584
N	2.6676	-2.5546	-2.7115
C	2.2683	-1.9093	-1.5738
H	0.8410	0.0533	1.7491
H	1.4644	-1.5515	1.4171
H	0.3455	-0.7674	0.2855
H	4.6423	2.8694	0.2911
H	5.0470	3.7978	1.7181
H	3.9306	4.4614	0.5107
H	1.6121	1.8966	3.7657
H	0.8260	2.9570	5.8680
H	1.4288	5.3555	6.2819
H	3.4592	5.5966	2.7003
H	4.4101	0.6673	-1.4230
H	5.2016	-0.4347	-3.4914
H	4.0214	-2.5077	-4.2611
H	1.4195	-2.3622	-1.0760
X	3.8459	1.2312	0.1486
X	1.5752	1.7186	1.8109
X	2.6876	6.4629	4.7131
X	2.2677	-3.3013	-3.0157
0	1	S
0	18	S
0	19	S
0	20	S
1	2	S
1	12	S
2	3	S
3	4	S
4	5	S
4	6	S
5	21	S
5	22	S
5	23	S
6	7	D
6	11	S
7	8	S
7	24	S
8	9	D
8	25	S
9	10	S
9	26	S
10	11	S
11	27	S
12	13	D
12	17	S
13	14	S
13	28	S
14	15	D
14	29	S
15	16	S
15	30	S
16	17	S
17	31	S
2	32	S
3	33	S
10	34	S
16	35	S
