20
16	17	18	19
C	1.3612	-0.2329	0.0860
C	0.4673	-1.3027	0.1384
C	-0.9072	-1.0706	0.0453
C	-1.3916	0.2355	-0.1034
C	-2.8794	0.4857	-0.2230
N	-3.8231	-0.4899	-0.1826
N	-4.9997	0.1598	-0.3461
N	-4.7660	1.4826	-0.4748
N	-3.4346	1.7133	-0.3922
C	-0.4896	1.3061	-0.1501
C	0.8842	1.0704	-0.0555
H	2.4299	-0.4149	0.1547
H	0.8344	-2.3187	0.2485
H	-1.6013	-1.9078	0.0839
H	-0.8579	2.3238	-0.2626
H	1.5770	1.9063	-0.0955
X	-3.6964	-1.3740	-0.0717
X	-5.8117	-0.2278	-0.3661
X	-5.3982	2.1115	-0.5965
X	-3.0123	2.5067	-0.4393
0	1	D
0	10	S
0	11	S
1	2	S
1	12	S
2	3	D
2	13	S
3	4	S
3	9	S
4	5	S
4	8	S
5	6	S
6	7	S
7	8	S
9	10	D
9	14	S
10	15	S
5	16	S
6	17	S
7	18	S
8	19	S
