40
35	36	37	38	39
C	-0.5924	0.9625	0.5610
C	0.7898	1.0433	0.5965
C	1.5397	0.0200	0.0100
C	3.0003	0.1019	0.0217
N	3.7413	0.7374	0.9081
C	5.0503	0.5847	0.5149
C	6.1542	1.1436	1.2838
C	6.0791	1.1605	2.6774
C	7.1849	1.5895	3.3940
N	8.3417	1.9906	2.8245
C	8.3765	2.0100	1.4770
C	7.3123	1.6317	0.6761
C	5.1308	-0.1792	-0.6478
C	6.2441	-0.6523	-1.4724
C	7.4344	-1.0977	-0.8901
C	8.5147	-1.3832	-1.7067
N	8.4720	-1.3149	-3.0518
C	7.2986	-0.9428	-3.6025
C	6.1726	-0.6041	-2.8677
N	3.8122	-0.4545	-0.9404
C	0.8539	-1.0536	-0.5676
C	-0.5293	-1.0454	-0.5432
N	-1.2687	-0.0588	-0.0024
H	-1.2078	1.7451	0.9984
H	1.2766	1.8942	1.0638
H	5.1856	0.8298	3.1967
H	7.1733	1.6122	4.4799
H	9.3160	2.3354	1.0391
H	7.4128	1.6917	-0.4021
H	7.5460	-1.1793	0.1864
H	9.4750	-1.6650	-1.2833
H	7.2906	-0.9059	-4.6882
H	5.2806	-0.2721	-3.3874
H	1.3728	-1.8988	-1.0079
H	-1.1016	-1.8645	-0.9740
X	4.1028	0.0124	-0.2280
X	3.4231	1.1789	1.6249
X	9.0540	2.2329	3.3184
X	9.1912	-1.5081	-3.5571
X	-2.1683	-0.0809	-0.0168
0	1	D
0	22	S
0	23	S
1	2	S
1	24	S
2	3	S
2	20	D
3	4	S
3	19	S
4	5	S
5	6	S
5	12	D
6	7	D
6	11	S
7	8	S
7	25	S
8	9	S
8	26	S
9	10	S
10	11	D
10	27	S
11	28	S
12	13	S
12	19	S
13	14	D
13	18	S
14	15	S
14	29	S
15	16	S
15	30	S
16	17	S
17	18	D
17	31	S
18	32	S
20	21	S
20	33	S
21	22	S
21	34	S
19	35	S
4	36	S
9	37	S
16	38	S
22	39	S
