15
12	13	14
O	2.7261	-0.8265	0.8571
C	2.3367	0.0356	0.0049
O	1.3315	0.8083	0.1580
C	3.1168	0.1699	-1.3047
C	2.6741	1.1033	-2.2419
N	3.2796	1.3203	-3.4451
C	4.3636	0.5521	-3.6761
C	4.8245	-0.3817	-2.7662
N	4.2255	-0.5945	-1.5775
H	1.7983	1.7159	-2.0449
H	4.8610	0.7069	-4.6251
H	5.6958	-0.9916	-2.9677
X	2.9855	1.9257	-4.0426
X	4.5456	-1.2082	-1.0023
X	1.7250	-0.0697	1.0319
0	1	S
1	2	S
1	3	S
3	4	D
3	8	S
4	5	S
4	9	S
5	6	S
6	7	S
6	10	S
7	8	S
7	11	S
5	12	S
8	13	S
14	0	S
