16
13	14	15
C	1.1586	0.1095	0.0034
C	2.6258	0.0756	0.0029
N	3.4223	1.1563	0.0044
C	4.6684	0.6559	0.0012
C	5.8972	1.4594	0.0000
N	4.6600	-0.6920	-0.0014
N	3.3435	-1.0666	-0.0002
H	0.7878	1.1391	0.0049
H	0.7735	-0.3988	0.8930
H	0.7731	-0.3963	-0.8874
H	5.6697	2.5297	-0.0020
H	6.4923	1.2301	-0.8896
H	6.4922	1.2333	0.8906
X	3.1761	2.0220	0.0070
X	5.3821	-1.2292	-0.0035
X	3.0130	-1.9037	-0.0012
0	1	S
0	7	S
0	8	S
0	9	S
1	2	S
1	6	S
2	3	S
3	4	S
3	5	S
4	10	S
4	11	S
4	12	S
5	6	S
2	13	S
5	14	S
6	15	S
