31
26	27	28	29	30
O	3.0502	-1.3455	0.2547
C	2.4894	-0.2134	0.1096
O	1.3835	-0.0128	-0.4863
C	3.1888	0.9825	0.6843
C	2.6580	2.2647	0.5216
C	3.2960	3.3767	1.0720
C	4.4734	3.2287	1.8072
C	5.0734	4.3843	2.4301
C	5.9740	4.3775	3.4728
N	6.1310	5.7090	3.7990
C	6.8574	6.2395	4.8761
C	7.5799	5.3851	5.7064
C	8.2897	5.8879	6.8019
C	9.0911	4.9486	7.6626
O	9.7506	5.4296	8.6363
O	9.0607	3.7117	7.3487
C	8.2353	7.2702	7.0565
C	7.5032	8.1451	6.2308
C	7.4274	9.6235	6.5079
O	6.7845	10.3408	5.6709
O	7.9951	10.0731	7.5523
C	6.8241	7.6084	5.1314
N	5.4285	6.4791	2.9274
N	4.7678	5.6771	2.1014
C	5.0147	1.9528	1.9644
C	4.3807	0.8424	1.4021
X	5.4046	7.3784	2.9013
X	4.2186	5.9560	1.4452
X	1.9298	-1.1702	-0.3502
X	9.7300	4.1997	8.3488
X	7.3670	10.8015	6.7287
0	1	S
1	2	S
1	3	S
3	4	D
3	25	S
4	5	S
5	6	D
6	7	S
6	24	S
7	8	D
7	23	S
8	9	S
9	10	S
9	22	S
10	11	D
10	21	S
11	12	S
12	13	S
12	16	D
13	14	S
13	15	S
16	17	S
17	18	S
17	21	D
18	19	S
18	20	S
22	23	S
24	25	D
22	26	S
23	27	S
28	0	S
29	14	S
30	19	S
