18
15	16	17
O	1.1097	-0.0123	-0.0877
C	2.3917	0.0075	-0.0845
C	3.1901	-1.1554	-0.0811
C	4.6057	-1.1368	-0.0776
C	5.3661	-2.5011	-0.0729
O	6.6494	-2.5158	-0.0707
O	4.6779	-3.5891	-0.0716
N	5.2937	0.0524	-0.0778
C	4.5686	1.2195	-0.0813
C	5.2883	2.6061	-0.0827
O	4.5669	3.6731	-0.0881
O	6.5703	2.6600	-0.0787
C	3.1537	1.1948	-0.0842
H	2.6926	-2.1234	-0.0815
H	2.6263	2.1471	-0.0870
X	6.1936	0.0665	-0.0757
X	5.9503	-3.5493	-0.0693
X	5.8411	3.6712	-0.0838
0	1	S
1	2	D
1	12	S
2	3	S
2	13	S
3	4	S
3	7	S
4	5	S
4	6	S
7	8	S
8	9	S
8	12	D
9	10	S
9	11	S
12	14	S
7	15	S
16	5	S
17	10	S
