22
19	20	21
C	0.9295	-0.0308	0.0825
C	2.4234	0.1372	0.0714
C	3.1050	1.3106	-0.0020
C	2.4955	2.6853	-0.0584
C	4.5759	1.3156	-0.0473
C	5.2728	0.1799	-0.0159
N	6.6009	-0.0834	-0.0566
N	6.7694	-1.3417	0.0068
N	5.5025	-2.0377	0.1002
C	4.6170	-1.1016	0.0808
C	3.1575	-1.1234	0.1427
H	0.3799	0.9118	0.0490
H	0.6095	-0.5578	0.9889
H	0.6110	-0.6184	-0.7871
H	1.4044	2.6842	-0.0453
H	2.8055	3.2033	-0.9734
H	2.8257	3.2802	0.8011
H	5.0951	2.2663	-0.1189
H	2.6613	-2.0747	0.2794
X	7.2823	0.5013	-0.1178
X	7.6072	-1.6699	-0.0107
X	5.2982	-2.9121	0.1606
0	1	S
0	11	S
0	12	S
0	13	S
1	2	D
1	10	S
2	3	S
2	4	S
3	14	S
3	15	S
3	16	S
4	5	D
4	17	S
5	6	S
5	9	S
6	7	S
7	8	S
8	9	S
9	10	S
10	18	S
6	19	S
7	20	S
8	21	S
