19
16	17	18
C	1.0045	0.0468	0.1167
C	2.5003	0.1353	0.1313
C	3.1683	1.3041	0.0526
C	4.6408	1.2683	0.0427
N	5.5057	2.2266	-0.0230
N	6.7914	1.5665	-0.0148
N	6.6667	0.3033	0.0487
C	5.3471	0.0003	0.0979
C	4.6936	-1.1590	0.1824
C	3.2466	-1.1134	0.2415
H	0.5396	1.0379	0.0776
H	0.6372	-0.4573	1.0160
H	0.6643	-0.5147	-0.7600
H	2.6896	2.2706	-0.0222
H	5.2114	-2.1089	0.2245
H	2.7146	-2.0311	0.4767
X	5.2794	3.0968	-0.0627
X	7.6184	1.9201	-0.0472
X	7.3682	-0.2604	0.0571
0	1	S
0	10	S
0	11	S
0	12	S
1	2	D
1	9	S
2	3	S
2	13	S
3	4	S
3	7	S
4	5	S
5	6	S
6	7	S
7	8	D
8	9	S
8	14	S
9	15	S
4	16	S
5	17	S
6	18	S
