15
12	13	14
O	1.2650	0.0346	0.8392
C	2.2849	-0.0532	0.0757
O	2.6731	-1.1226	-0.4966
C	3.0874	1.2292	-0.1539
C	2.6693	2.3895	0.4973
N	3.2986	3.5948	0.3854
C	4.3799	3.5919	-0.4201
C	4.8149	2.4582	-1.0820
N	4.1928	1.2674	-0.9689
H	1.7954	2.3796	1.1431
H	4.8968	4.5375	-0.5226
H	5.6836	2.4744	-1.7277
X	3.0209	4.3372	0.8116
X	4.4962	0.5437	-1.4096
X	1.6555	-1.0589	0.2558
0	1	S
1	2	S
1	3	S
3	4	D
3	8	S
4	5	S
4	9	S
5	6	S
6	7	S
6	10	S
7	8	S
7	11	S
5	12	S
8	13	S
14	0	S
