29
26	27	28
C	1.1253	0.1419	0.0853
C	2.6084	0.0607	0.2027
N	3.3656	0.9856	0.7344
N	4.7284	0.4963	0.7389
C	4.7267	-0.7000	0.2098
C	5.9223	-1.5832	0.1009
C	3.3849	-1.1099	-0.1976
C	3.0813	-1.9711	-1.3241
C	2.5265	-3.2370	-1.1270
C	2.2551	-4.0535	-2.2259
C	2.5330	-3.6204	-3.5341
C	2.2443	-4.5119	-4.7296
O	2.5267	-4.0461	-5.8754
O	1.7471	-5.6555	-4.4868
C	3.0810	-2.3447	-3.7147
C	3.3542	-1.5244	-2.6202
H	0.8038	1.1864	0.0902
H	0.6793	-0.3695	0.9439
H	0.7745	-0.3342	-0.8332
H	6.8356	-0.9832	0.1047
H	5.8927	-2.1794	-0.8140
H	5.9376	-2.2572	0.9629
H	2.3033	-3.6067	-0.1283
H	1.8264	-5.0443	-2.0789
H	3.3004	-1.9923	-4.7229
H	3.7831	-0.5405	-2.7970
X	3.0304	1.7683	1.0262
X	5.4833	0.8874	1.0341
X	2.0162	-5.2162	-5.6740
0	1	S
0	16	S
0	17	S
0	18	S
1	2	S
1	6	S
2	3	S
3	4	S
4	5	S
4	6	S
5	19	S
5	20	S
5	21	S
6	7	S
7	8	D
7	15	S
8	9	S
8	22	S
9	10	D
9	23	S
10	11	S
10	14	S
11	12	S
11	13	S
14	15	D
14	24	S
15	25	S
2	26	S
3	27	S
28	12	S
