32
28	29	30	31
O	0.9150	1.8586	-0.5341
C	1.8685	1.2456	-1.1316
O	1.8015	0.7152	-2.2813
C	3.1541	1.0566	-0.2743
N	4.4483	0.5240	-0.7949
C	4.7853	-0.8431	-0.3043
C	5.1015	-1.1553	1.1949
O	4.5364	-0.4736	2.1040
O	5.8345	-2.1882	1.3846
C	5.3642	1.3421	-1.4712
C	5.1297	2.7226	-1.6954
C	6.0441	3.5799	-2.3642
C	5.7571	5.0653	-2.5579
O	6.4202	5.6967	-3.4525
O	4.8894	5.6254	-1.8072
C	7.2409	3.0196	-2.8513
C	7.5349	1.6572	-2.6883
C	8.8305	1.0667	-3.2330
O	8.9134	-0.2005	-3.3784
O	9.7836	1.8679	-3.5311
C	6.5845	0.8525	-2.0040
H	2.7924	0.3547	0.4901
H	3.3455	1.9793	0.2876
H	5.5862	-1.2949	-0.8956
H	3.9177	-1.4788	-0.5366
H	4.2057	3.1767	-1.3467
H	7.9538	3.6594	-3.3682
H	6.8416	-0.1975	-1.9148
X	0.8775	1.3913	-1.7924
X	5.3442	-1.3949	2.3454
X	5.5313	6.2340	-2.7103
X	9.8504	0.6019	-3.6618
0	1	S
1	2	S
1	3	S
3	4	S
3	21	S
3	22	S
4	5	S
4	9	S
5	6	S
5	23	S
5	24	S
6	7	S
6	8	S
9	10	D
9	20	S
10	11	S
10	25	S
11	12	S
11	15	D
12	13	S
12	14	S
15	16	S
15	26	S
16	17	S
16	20	D
17	18	S
17	19	S
20	27	S
28	0	S
29	7	S
30	13	S
31	18	S
