42
35	36	37	38	39	40	41
O	7.4131	1.2404	1.0445
C	6.8883	0.7628	2.1094
O	7.5799	0.2654	3.0624
C	5.3700	0.7906	2.2477
C	4.7201	0.2563	3.3826
C	3.3179	0.3122	3.5354
C	2.6585	-0.2529	4.7347
N	1.5213	0.2684	5.2910
C	0.9021	-0.7383	5.8338
C	-0.4337	-0.6329	6.5001
C	-1.3382	-1.7129	6.4927
C	-2.6082	-1.6181	7.1002
C	-3.5826	-2.7887	7.0869
O	-4.7156	-2.6425	7.6701
O	-3.2391	-3.8743	6.5090
C	-2.9408	-0.3940	7.7293
C	-2.0587	0.7133	7.7656
C	-2.4474	1.9961	8.4926
O	-1.6019	2.9515	8.5573
O	-3.6095	2.0604	9.0276
C	-0.8076	0.5741	7.1230
N	1.5219	-1.9227	5.7470
N	2.8257	-1.6200	5.1219
C	2.5536	0.9049	2.5103
C	3.1482	1.4259	1.3411
C	2.3124	2.0321	0.2187
O	2.9258	2.4872	-0.8093
O	1.0421	2.0562	0.3357
C	4.5578	1.3617	1.2402
H	5.3156	-0.1986	4.1727
H	-1.0573	-2.6340	5.9872
H	-3.9158	-0.2996	8.2064
H	-0.1093	1.4078	7.1141
H	1.4698	0.9407	2.6262
H	5.0340	1.7690	0.3495
X	2.6670	-1.0846	5.8277
X	1.2324	1.1207	5.2985
X	1.1646	-2.6994	6.0282
X	8.0832	0.7409	2.0006
X	-4.3503	-3.7110	7.0764
X	-2.7533	3.0056	9.0647
X	1.6547	2.5091	-0.6645
0	1	S
1	2	S
1	3	S
3	4	D
3	28	S
4	5	S
4	29	S
5	6	S
5	23	D
6	7	S
6	22	S
7	8	S
8	9	S
8	21	S
9	10	D
9	20	S
10	11	S
10	30	S
11	12	S
11	15	D
12	13	S
12	14	S
15	16	S
15	31	S
16	17	S
16	20	D
17	18	S
17	19	S
20	32	S
21	22	S
23	24	S
23	33	S
24	25	S
24	28	D
25	26	S
25	27	S
28	34	S
22	35	S
7	36	S
21	37	S
38	0	S
39	13	S
40	18	S
41	26	S
