15
12	13	14
O	1.2447	-0.8163	0.3669
C	2.1789	-0.0324	-0.0231
O	2.5450	0.0884	-1.2440
C	2.9211	0.8355	1.0633
N	3.9183	1.6815	0.6705
C	4.5261	2.4124	1.6185
C	4.2013	2.3543	2.9498
C	3.1935	1.4814	3.2720
N	2.5471	0.7240	2.3717
H	5.3093	3.0691	1.2553
H	4.7043	2.9538	3.6928
H	2.8588	1.3570	4.2964
X	4.1685	1.7554	-0.1909
X	1.8916	0.1658	2.6339
X	1.6138	-0.6932	-0.8502
0	1	S
1	2	S
1	3	S
3	4	S
3	8	S
4	5	S
5	6	D
5	9	S
6	7	S
6	10	S
7	8	S
7	11	S
4	12	S
8	13	S
14	0	S
