28
24	25	26	27
C	-0.6107	0.1217	-0.9001
N	0.3641	0.9977	-0.5979
N	0.9485	0.5458	0.5292
C	0.3048	-0.5867	0.8653
C	-0.7087	-0.9218	-0.0056
C	-1.6474	-2.0861	0.0137
C	-1.5840	-3.0327	1.0411
C	-2.4648	-4.1232	1.0587
C	-3.4156	-4.2821	0.0456
C	-4.3505	-5.4492	0.0606
C	-4.4832	-6.4682	0.9785
N	-5.4416	-7.3569	0.6598
N	-5.9798	-6.9384	-0.5028
C	-5.3252	-5.8135	-0.8428
C	-3.4788	-3.3361	-0.9821
C	-2.6012	-2.2433	-0.9968
H	-1.2235	0.2822	-1.7759
H	0.6069	-1.1339	1.7471
H	-0.8560	-2.9421	1.8412
H	-2.3875	-4.8387	1.8715
H	-3.9104	-6.5995	1.8856
H	-5.5871	-5.2960	-1.7549
H	-4.2061	-3.4269	-1.7827
H	-2.6796	-1.5278	-1.8092
X	0.5822	1.7394	-1.0587
X	1.6344	0.9259	0.9709
X	-5.6762	-8.0869	1.1311
X	-6.6458	-7.3328	-0.9621
0	1	S
0	4	S
0	16	S
1	2	S
2	3	S
3	4	D
3	17	S
4	5	S
5	6	D
5	15	S
6	7	S
6	18	S
7	8	D
7	19	S
8	9	S
8	14	S
9	10	D
9	13	S
10	11	S
10	20	S
11	12	S
12	13	S
13	21	S
14	15	D
14	22	S
15	23	S
1	24	S
2	25	S
11	26	S
12	27	S
