21
18	19	20
O	1.4051	-0.6576	-0.7524
C	2.2144	0.1701	-0.5459
N	3.0745	1.1659	-0.2924
C	4.4626	1.0925	-0.4863
C	5.1231	-0.0692	-0.8886
C	6.5221	-0.0844	-1.0617
C	7.2175	-1.3642	-1.5000
O	8.4828	-1.3485	-1.6309
O	6.4789	-2.3832	-1.7099
C	7.2401	1.1086	-0.8218
C	6.5929	2.2958	-0.4223
C	7.3427	3.5941	-0.1759
O	6.6435	4.6044	0.1715
O	8.6044	3.6034	-0.3275
C	5.1978	2.2588	-0.2572
H	4.5777	-0.9916	-1.0753
H	8.3242	1.1123	-0.9505
H	4.6989	3.1753	0.0509
X	3.4302	0.3796	-0.5478
X	7.7661	-2.3739	-1.8458
X	7.9349	4.6195	0.0187
0	1	D
1	2	S
2	3	S
3	4	D
3	14	S
4	5	S
4	15	S
5	6	S
5	9	D
6	7	S
6	8	S
9	10	S
9	16	S
10	11	S
10	14	D
11	12	S
11	13	S
14	17	S
2	18	S
19	7	S
20	12	S
