21
16	17	18	19	20
O	2.4103	-0.1573	-1.2011
C	2.1605	-0.1799	0.0523
O	1.2531	-0.9382	0.5614
C	2.9450	0.7237	1.0163
C	2.5983	0.6853	2.3585
N	3.1909	1.4208	3.3315
C	4.2093	2.2779	2.9332
C	4.9392	3.0548	4.0392
O	6.2144	2.9631	4.1109
O	4.2229	3.6226	4.9421
C	4.5797	2.3593	1.5814
C	5.6311	3.3751	1.1047
O	6.5480	2.9734	0.3028
O	5.4676	4.6058	1.4293
N	3.9445	1.5716	0.6156
H	1.8037	0.0326	2.7053
X	2.9250	1.3449	4.1880
X	4.1761	1.6099	-0.2532
X	1.5479	-0.8855	-0.7005
X	5.5094	3.6617	4.9032
X	6.4516	4.1678	0.7327
0	1	S
1	2	S
1	3	S
3	4	D
3	14	S
4	5	S
4	15	S
5	6	S
6	7	S
6	10	S
7	8	S
7	9	S
10	11	S
10	14	S
11	12	S
11	13	S
5	16	S
14	17	S
18	0	S
19	8	S
20	12	S
