37
33	34	35	36
O	1.9756	2.0609	0.4503
C	1.6483	0.9157	0.9015
O	0.4612	0.4401	0.8412
C	2.7218	0.0248	1.5079
C	2.4676	-1.3440	1.6837
C	3.4299	-2.1637	2.2724
C	3.2895	-3.6345	2.1989
O	2.2351	-4.2352	2.3539
O	4.4475	-4.2627	1.8588
C	4.5995	-1.6142	2.8041
C	4.9956	-0.3184	2.4742
C	6.4298	0.1024	2.6670
C	7.5423	-0.7551	2.2960
C	7.4658	-2.2366	1.8441
O	8.4568	-2.9953	2.1370
O	6.4410	-2.7047	1.2258
C	8.8759	-0.2343	2.3800
C	9.1808	1.0697	2.7972
C	10.6154	1.5833	2.8437
O	10.8256	2.7761	3.2682
O	11.5545	0.8098	2.4593
C	8.0993	1.8607	3.2000
C	6.7486	1.4083	3.1854
C	5.7343	2.3521	3.8283
O	5.8733	3.6072	3.6107
O	4.8752	1.8620	4.6400
C	4.0141	0.5025	1.8550
H	1.5333	-1.7654	1.3218
H	5.2056	-3.6380	1.6002
H	5.2921	-2.2605	3.3403
H	9.7066	-0.8851	2.1019
H	8.3016	2.8716	3.5648
H	4.2497	1.5422	1.6297
X	0.8014	1.6185	0.4231
X	7.4066	-3.3830	1.4944
X	11.7447	1.9876	2.8803
X	4.9374	3.0936	4.3334
0	1	S
1	2	S
1	3	S
3	4	D
3	26	S
4	5	S
4	27	S
5	6	S
5	9	D
6	7	D
6	8	S
8	28	S
9	10	S
9	29	S
10	11	S
10	26	D
11	12	D
11	22	S
12	13	S
12	16	S
13	14	S
13	15	S
16	17	D
16	30	S
17	18	S
17	21	S
18	19	S
18	20	S
21	22	D
21	31	S
22	23	S
23	24	S
23	25	S
26	32	S
33	0	S
34	14	S
35	19	S
36	24	S
