33
30	31	32
O	2.6844	0.3479	1.2215
C	2.2351	-0.0594	0.1022
O	1.2054	0.4004	-0.4891
C	2.9873	-1.1804	-0.5836
C	2.5552	-1.6882	-1.8203
C	3.2732	-2.6961	-2.4756
C	4.4264	-3.2255	-1.8935
C	5.1915	-4.2339	-2.5709
C	5.8733	-5.0536	-3.1245
C	6.7287	-6.0066	-3.7778
C	7.8593	-6.5004	-3.1189
C	8.7295	-7.4147	-3.7443
C	9.9563	-7.9326	-3.0082
O	10.7190	-8.7576	-3.6085
O	10.1500	-7.5058	-1.8211
C	8.4257	-7.8211	-5.0624
C	7.2879	-7.3416	-5.7493
C	6.9652	-7.7821	-7.1691
O	5.9154	-7.2950	-7.7083
O	7.7501	-8.6055	-7.7405
C	6.4484	-6.4285	-5.0809
C	4.8525	-2.7499	-0.6516
C	4.1424	-1.7317	-0.0062
H	1.6560	-1.2743	-2.2747
H	2.9327	-3.0513	-3.4437
H	8.0848	-6.1748	-2.1049
H	9.0908	-8.5242	-5.5657
H	5.5716	-6.0476	-5.6012
H	5.7447	-3.1581	-0.1852
H	4.4884	-1.3503	0.9532
X	1.6390	0.8290	0.6457
X	10.9238	-8.3411	-2.4277
X	6.7106	-8.1296	-8.2891
0	1	S
1	2	S
1	3	S
3	4	D
3	22	S
4	5	S
4	23	S
5	6	D
5	24	S
6	7	S
6	21	S
7	8	A
8	9	S
9	10	D
9	20	S
10	11	S
10	25	S
11	12	S
11	15	D
12	13	S
12	14	S
15	16	S
15	26	S
16	17	S
16	20	D
17	18	S
17	19	S
20	27	S
21	22	D
21	28	S
22	29	S
30	0	S
31	13	S
32	18	S
