30
24	25	26	27	28	29
C	0.9722	-1.4996	-0.3809
C	2.0625	-0.7608	-0.6465
O	3.2553	-1.3659	-0.9908
C	4.3245	-0.5594	-1.2965
C	5.5032	-1.2002	-1.6752
C	6.6091	-0.3922	-1.9689
C	6.5254	1.0138	-1.8931
C	5.3326	1.6489	-1.5258
C	4.2407	0.8351	-1.2281
O	3.0814	1.4731	-0.8643
C	1.9866	0.6899	-0.5841
C	0.7734	1.4006	-0.2537
C	-0.3102	0.6650	-0.0099
N	-1.5869	0.9980	0.3038
N	-2.2679	-0.0660	0.4292
N	-1.4571	-1.2426	0.2043
C	-0.2765	-0.7875	-0.0597
N	7.7300	1.5286	-2.2191
N	8.5222	0.4571	-2.4756
N	7.8636	-0.7212	-2.3445
H	0.9645	-2.5794	-0.4085
H	5.6017	-2.2739	-1.7465
H	5.3010	2.7274	-1.4827
H	0.7648	2.4822	-0.2225
X	-1.9372	1.8196	0.4145
X	-3.1417	-0.0000	0.6344
X	-1.6560	-2.1201	0.2253
X	7.9562	2.3989	-2.2572
X	9.3895	0.5209	-2.7073
X	8.1908	-1.5488	-2.4787
0	1	D
0	16	S
0	20	S
1	2	S
1	10	S
2	3	S
3	4	D
3	8	S
4	5	S
4	21	S
5	6	S
5	19	S
6	7	S
6	17	S
7	8	D
7	22	S
8	9	S
9	10	S
10	11	S
11	12	D
11	23	S
12	13	S
12	16	S
13	14	S
14	15	S
15	16	S
17	18	S
18	19	S
13	24	S
14	25	S
15	26	S
17	27	S
18	28	S
19	29	S
