13
10	11	12
O	0.9474	0.0354	0.0182
C	2.1964	0.2083	0.0832
O	2.8476	1.2953	0.0092
C	3.0544	-1.0249	0.2784
C	4.4961	-0.9709	0.4298
N	4.9732	-2.1726	0.5472
C	3.8410	-2.9660	0.4679
N	2.7020	-2.3622	0.3156
H	5.0499	-0.0236	0.4379
H	3.9257	-4.0616	0.5328
X	5.8395	-2.3924	0.6531
X	1.8963	-2.7584	0.2534
X	1.5168	1.1851	-0.0714
0	1	S
1	2	S
1	3	S
3	4	S
3	7	S
4	5	S
4	8	S
5	6	S
6	7	S
6	9	S
5	10	S
7	11	S
12	0	S
