13
9	10	11	12
C	1.0094	-0.0527	0.0527
C	2.4780	-0.0762	0.0533
N	3.2391	1.0359	0.0536
N	4.5077	0.5571	0.0551
N	4.4784	-0.7971	0.0554
N	3.1907	-1.2207	0.0539
H	0.6302	0.9740	0.0541
H	0.6268	-0.5627	0.9423
H	0.6273	-0.5603	-0.8384
X	2.9656	1.8933	0.0530
X	5.2538	1.0604	0.0558
X	5.2020	-1.3322	0.0564
X	2.8809	-2.0657	0.0534
0	1	S
0	6	S
0	7	S
0	8	S
1	2	S
1	5	S
2	3	S
3	4	S
4	5	S
2	9	S
3	10	S
4	11	S
5	12	S
