18
15	16	17
O	0.4833	-0.5685	-0.4989
C	1.6379	-0.1857	-0.1046
O	1.8881	0.5600	0.8820
C	2.8040	-0.7640	-0.9307
C	4.1620	-0.7275	-0.8879
C	5.0066	-0.0064	0.1492
C	6.1610	0.9175	-0.2949
O	6.0130	1.6232	-1.3346
O	7.1381	0.9876	0.5312
C	4.9480	-1.6159	-1.9151
O	4.3657	-1.8760	-3.0183
O	6.0368	-2.1190	-1.4998
H	2.3829	-1.3696	-1.7378
H	5.4414	-0.7769	0.8016
H	4.3752	0.6094	0.7986
X	0.7302	0.2644	0.5384
X	7.0583	1.6356	-0.6401
X	5.5491	-2.2953	-2.7007
0	1	S
1	2	S
1	3	S
3	4	D
3	12	S
4	5	S
4	9	S
5	6	S
5	13	S
5	14	S
6	7	S
6	8	S
9	10	S
9	11	S
15	0	S
16	7	S
17	10	S
