26
21	22	23	24	25
O	2.3408	1.3595	0.3531
C	2.3267	0.1359	-0.0675
O	1.7680	-0.1761	-1.1799
C	3.1205	-0.9160	0.7207
C	2.9878	-2.3158	0.6710
C	1.8237	-3.1276	0.0845
O	2.0361	-4.3650	-0.2330
O	0.6452	-2.6225	0.0285
N	4.0879	-2.8458	1.3464
C	4.7981	-1.8206	1.8594
C	6.0640	-1.9566	2.6421
C	6.5887	-3.2097	2.9521
C	7.7822	-3.2908	3.6626
C	8.4062	-2.1080	4.0349
N	7.9334	-0.8716	3.7633
C	6.7580	-0.8312	3.0629
N	4.2090	-0.6487	1.5490
H	6.0518	-4.0985	2.6287
H	8.2074	-4.2540	3.9094
H	9.3424	-2.1257	4.5811
H	6.3718	0.1597	2.8309
X	4.3056	-3.7143	1.4371
X	8.3689	-0.1302	4.0291
X	4.4883	0.1563	1.8387
X	1.7064	0.9579	-0.6835
X	0.9140	-3.7620	-0.3738
0	1	S
1	2	S
1	3	S
3	4	D
3	16	S
4	5	S
4	8	S
5	6	S
5	7	S
8	9	S
9	10	S
9	16	S
10	11	D
10	15	S
11	12	S
11	17	S
12	13	D
12	18	S
13	14	S
13	19	S
14	15	S
15	20	S
8	21	S
14	22	S
16	23	S
24	0	S
25	6	S
