34
30	31	32	33
O	0.9501	0.2852	0.0151
C	2.1341	-0.0300	-0.0044
N	2.7273	-0.7776	-1.0143
C	2.0481	-1.3241	-2.1329
C	0.7664	-0.9283	-2.5215
C	0.1001	-1.5742	-3.5676
C	0.7045	-2.6226	-4.2693
C	-0.0418	-3.3533	-5.3690
O	0.5765	-4.2962	-5.9582
O	-1.2296	-2.9739	-5.6244
C	2.0155	-2.9789	-3.9135
C	2.6846	-2.3330	-2.8634
N	3.0416	0.2887	0.9942
C	2.7459	0.9307	2.2219
C	1.4550	1.2833	2.6267
C	1.2319	1.9206	3.8515
C	2.2921	2.2156	4.7160
C	2.0485	2.9132	6.0398
O	3.0647	3.1347	6.7716
O	0.8486	3.2291	6.3250
C	3.5855	1.8457	4.3143
C	3.8109	1.2129	3.0834
H	0.2374	-0.1219	-2.0262
H	-0.9123	-1.2680	-3.8269
H	2.5037	-3.7877	-4.4549
H	3.6878	-2.6622	-2.6136
H	4.0147	0.1128	0.8065
H	0.2165	2.1900	4.1380
H	4.4216	2.0611	4.9774
H	4.8304	0.9490	2.8221
X	1.9088	-0.4426	-1.1810
X	3.8382	0.0319	0.6633
X	-0.6323	-3.9314	-6.2391
X	1.8557	3.4654	7.0876
0	1	D
1	2	S
1	12	S
2	3	S
3	4	D
3	11	S
4	5	S
4	22	S
5	6	D
5	23	S
6	7	S
6	10	S
7	8	S
7	9	S
10	11	D
10	24	S
11	25	S
12	13	S
12	26	S
13	14	D
13	21	S
14	15	S
15	16	D
15	27	S
16	17	S
16	20	S
17	18	S
17	19	S
20	21	D
20	28	S
21	29	S
2	30	S
12	31	S
32	8	S
33	18	S
