28
20	21	22	23	24	25	26	27
C	1.3859	-0.2103	-0.0716
C	0.5117	-1.3007	0.0126
C	-0.8745	-1.0932	0.0368
C	-1.8226	-2.2746	0.0831
N	-1.4280	-3.5762	0.1274
N	-2.5784	-4.2898	0.1294
N	-3.6296	-3.4452	0.0898
N	-3.1780	-2.1689	0.0731
C	-1.3779	0.2145	0.0032
C	-0.5034	1.3051	-0.0687
C	0.8816	1.0971	-0.1198
C	1.8255	2.2772	-0.2374
N	1.4252	3.5753	-0.2922
N	2.5709	4.2907	-0.3863
N	3.6241	3.4478	-0.4009
N	3.1789	2.1721	-0.3094
H	2.4588	-0.3853	-0.1073
H	0.9149	-2.3100	0.0483
H	-2.4510	0.3890	0.0267
H	-0.9074	2.3146	-0.0937
X	-0.5871	-3.8962	0.1504
X	-2.6356	-5.1877	0.1534
X	-4.4945	-3.6937	0.0766
X	-3.6705	-1.4158	0.0585
X	0.5833	3.8926	-0.2708
X	2.6242	5.1880	-0.4321
X	4.4868	3.6970	-0.4620
X	3.6734	1.4202	-0.2988
0	1	D
0	10	S
0	16	S
1	2	S
1	17	S
2	3	S
2	8	D
3	4	S
3	7	S
4	5	S
5	6	S
6	7	S
8	9	S
8	18	S
9	10	D
9	19	S
10	11	S
11	12	S
11	15	S
12	13	S
13	14	S
14	15	S
4	20	S
5	21	S
6	22	S
7	23	S
12	24	S
13	25	S
14	26	S
15	27	S
