28
25	26	27
O	2.6037	-0.7943	-0.9305
C	2.1987	-0.0920	0.0494
O	1.2102	-0.3752	0.8013
C	2.9565	1.1873	0.3499
C	2.5632	2.0102	1.4158
C	3.2549	3.1873	1.7264
C	4.3627	3.5688	0.9434
C	4.7334	2.7558	-0.1259
C	4.0628	1.5649	-0.4370
N	5.8096	3.3596	-0.7339
C	6.1595	4.5205	-0.0847
C	7.1837	5.4434	-0.3552
C	7.3342	6.5590	0.4942
C	8.4298	7.5836	0.2433
O	8.5057	8.5671	1.0514
O	9.1952	7.3922	-0.7539
C	6.4556	6.7081	1.5779
C	5.4305	5.7852	1.8300
C	5.2764	4.6703	0.9821
H	1.7012	1.7179	2.0141
H	2.9361	3.7985	2.5634
H	4.3745	0.9333	-1.2653
H	7.8565	5.3127	-1.1985
H	6.5746	7.5666	2.2381
H	4.7657	5.9294	2.6745
X	5.3880	3.6836	-0.0078
X	1.5992	-1.1040	-0.1883
X	9.2942	8.3920	0.0453
0	1	S
1	2	S
1	3	S
3	4	D
3	8	S
4	5	S
4	19	S
5	6	D
5	20	S
6	7	S
6	18	S
7	8	D
7	9	S
8	21	S
9	10	S
10	11	S
10	18	D
11	12	D
11	22	S
12	13	S
12	16	S
13	14	S
13	15	S
16	17	D
16	23	S
17	18	S
17	24	S
9	25	S
26	0	S
27	14	S
