30
26	27	28	29
O	0.8985	-0.1900	-0.1562
C	2.1661	-0.2219	-0.0094
O	2.8555	-1.2633	0.2406
C	2.9360	1.0854	-0.3816
C	4.4639	1.0571	-0.1817
C	5.2165	2.2939	-0.7445
C	5.4870	2.0973	-2.2658
O	4.6603	2.5635	-3.0980
O	6.5475	1.4342	-2.5447
C	4.5770	3.6064	-0.2293
C	5.3493	4.8818	-0.6887
O	6.5711	4.9491	-0.3248
O	4.6905	5.8149	-1.2462
C	3.0485	3.6284	-0.4096
C	2.3113	2.3897	0.1761
C	2.0728	2.5503	1.7070
O	1.3193	3.5290	2.0441
O	2.6009	1.7166	2.4970
H	2.7888	1.1268	-1.4727
H	4.8769	0.1436	-0.6275
H	4.6760	0.9845	0.8936
H	6.2240	2.2582	-0.3006
H	4.7340	3.6092	0.8615
H	2.8154	3.6979	-1.4800
H	2.6495	4.5474	0.0379
H	1.2882	2.4342	-0.2294
X	1.5747	-1.2261	0.2765
X	5.6954	1.9458	-3.4378
X	5.9433	5.8628	-1.0420
X	1.8891	2.6740	2.8864
0	1	S
1	2	S
1	3	S
3	4	S
3	14	S
3	18	S
4	5	S
4	19	S
4	20	S
5	6	S
5	9	S
5	21	S
6	7	S
6	8	S
9	10	S
9	13	S
9	22	S
10	11	S
10	12	S
13	14	S
13	23	S
13	24	S
14	15	S
14	25	S
15	16	S
15	17	S
26	0	S
27	7	S
28	11	S
29	16	S
