20
16	17	18	19
O	2.7858	-1.0770	-0.6068
C	2.3370	-0.0560	0.0112
O	1.2860	-0.0471	0.7329
C	3.1108	1.2442	-0.1221
C	2.6844	2.4141	0.5271
C	3.4011	3.6150	0.4066
C	4.5691	3.6901	-0.3692
C	5.3452	4.9893	-0.4990
O	6.3960	4.9805	-1.2211
O	4.8986	6.0092	0.1222
C	4.9941	2.5208	-1.0204
C	4.2785	1.3195	-0.8983
H	1.7821	2.3860	1.1340
H	3.0481	4.5050	0.9227
H	5.8950	2.5495	-1.6293
H	4.6327	0.4289	-1.4127
X	3.1026	-1.7977	-1.0430
X	0.5441	-0.0408	1.2424
X	7.1377	4.9743	-1.7308
X	4.5833	6.7291	0.5607
0	1	S
1	2	S
1	3	S
3	4	D
3	11	S
4	5	S
4	12	S
5	6	D
5	13	S
6	7	S
6	10	S
7	8	S
7	9	S
10	11	D
10	14	S
11	15	S
16	0	S
17	2	S
18	8	S
19	9	S
