10
6	7	8	9
O	0.9547	0.0784	-0.0507
C	2.2329	-0.0157	-0.0638
O	2.9545	-1.0651	-0.2082
C	2.9970	1.2958	0.1165
O	3.2767	1.6154	1.3258
O	3.2739	1.9316	-0.9614
X	0.0572	0.1445	-0.0415
X	3.4612	-1.8020	-0.3096
X	3.4731	1.8398	2.1750
X	3.4683	2.3781	-1.7183
0	1	S
1	2	S
1	3	S
3	4	S
3	5	S
6	0	S
7	2	S
8	4	S
9	5	S
