24
18	19	20	21	22	23
O	2.5959	-1.1335	-0.7767
C	2.1594	-0.1423	-0.0985
O	1.0734	-0.1757	0.5743
C	2.9772	1.1467	-0.0907
C	2.5510	2.2790	0.6398
C	3.2923	3.4818	0.6704
C	2.8108	4.6862	1.4751
O	3.5261	5.7451	1.4694
O	1.7127	4.5844	2.1213
C	4.4968	3.5291	-0.0674
C	4.9684	2.4274	-0.8166
C	6.2750	2.5067	-1.6023
O	6.6488	1.4787	-2.2629
O	6.9393	3.5977	-1.5659
C	4.1890	1.2485	-0.8108
H	1.6185	2.2218	1.2012
H	5.0837	4.4477	-0.0573
H	4.5357	0.3864	-1.3808
X	2.9033	-1.8316	-1.2544
X	0.3086	-0.1992	1.0481
X	4.0299	6.4909	1.4654
X	0.9395	4.5127	2.5763
X	6.9121	0.7547	-2.7282
X	7.4072	4.3661	-1.5403
0	1	S
1	2	S
1	3	S
3	4	D
3	14	S
4	5	S
4	15	S
5	6	S
5	9	D
6	7	S
6	8	S
9	10	S
9	16	S
10	11	S
10	14	D
11	12	S
11	13	S
14	17	S
18	0	S
19	2	S
20	7	S
21	8	S
22	12	S
23	13	S
