16
13	14	15
O	2.7889	1.0147	0.5003
C	2.3320	-0.0576	-0.0065
O	1.3314	-0.1505	-0.7845
C	3.0443	-1.3404	0.3491
C	2.6158	-2.5704	-0.1609
C	3.3025	-3.7208	0.1945
N	4.3769	-3.7425	1.0158
C	4.7739	-2.5430	1.4981
C	4.1546	-1.3392	1.2000
H	1.7576	-2.6160	-0.8248
H	2.9917	-4.6874	-0.1882
H	5.6357	-2.5701	2.1568
H	4.5203	-0.4058	1.6175
X	4.8011	-4.5073	1.2281
X	3.1124	1.7740	0.8592
X	0.6228	-0.2163	-1.3355
0	1	S
1	2	S
1	3	S
3	4	D
3	8	S
4	5	S
4	9	S
5	6	S
5	10	S
6	7	S
7	8	D
7	11	S
8	12	S
6	13	S
14	0	S
15	2	S
