19
15	16	17	18
O	1.3108	0.4860	-0.7003
C	2.3157	0.0688	-0.0414
O	2.7748	0.6274	1.0115
C	3.0311	-1.1817	-0.5271
C	4.1303	-1.6830	0.1910
C	4.8023	-2.8281	-0.2282
C	4.3929	-3.4948	-1.3795
C	3.3048	-3.0323	-2.1394
C	2.8910	-3.7730	-3.4011
O	1.8992	-3.3332	-4.0644
O	3.5757	-4.8038	-3.7187
C	2.6316	-1.8726	-1.6933
H	4.4619	-1.1671	1.0883
H	4.9261	-4.3869	-1.6979
H	1.7820	-1.4991	-2.2667
X	0.5998	0.7812	-1.1665
X	3.0983	1.0210	1.7534
X	1.1973	-3.0219	-4.5339
X	4.0580	-5.5299	-3.9424
0	1	S
1	2	S
1	3	S
3	4	D
3	11	S
4	5	S
4	12	S
5	6	D
6	7	S
6	13	S
7	8	S
7	11	D
8	9	S
8	10	S
11	14	S
15	0	S
16	2	S
17	9	S
18	10	S
