17
13	14	15	16
O	2.8393	-0.8205	0.7946
C	2.3744	0.1058	0.0572
O	1.3387	0.8026	0.3282
C	3.0763	0.4164	-1.2238
C	2.6682	1.4049	-2.1009
C	3.5007	1.4879	-3.2553
C	4.5188	0.5516	-3.2423
C	5.5126	0.3964	-4.3463
O	6.4079	-0.5004	-4.2362
O	5.3900	1.1869	-5.3421
S	4.4738	-0.3897	-1.8086
H	1.8041	2.0301	-1.9136
H	3.3622	2.1865	-4.0709
X	3.1682	-1.4759	1.3164
X	0.6090	1.2936	0.5191
X	7.0414	-1.1349	-4.1583
X	5.3036	1.7439	-6.0437
0	1	S
1	2	S
1	3	S
3	4	D
3	10	S
4	5	S
4	11	S
5	6	D
5	12	S
6	7	S
6	10	S
7	8	S
7	9	S
13	0	S
14	2	S
15	8	S
16	9	S
