31
27	28	29	30
O	2.9841	-1.1828	-0.0963
C	2.2752	-0.1322	0.0269
O	1.0354	-0.1077	0.3106
C	2.9683	1.2013	-0.1888
C	2.2575	2.4105	-0.1051
C	2.8928	3.6410	-0.3153
C	4.2653	3.6857	-0.5620
O	4.9838	4.8365	-0.7967
C	4.6845	6.0078	-0.1363
C	4.1282	6.0919	1.1407
C	3.8741	7.3433	1.7157
C	4.2175	8.5333	1.0519
C	3.9502	9.8862	1.6820
O	4.3202	10.9161	1.0286
O	3.3771	9.9010	2.8183
C	4.8253	8.4301	-0.2100
C	5.0559	7.1811	-0.7975
C	4.9799	2.4913	-0.6764
C	4.3383	1.2622	-0.4902
H	1.1929	2.3846	0.1227
H	2.3003	4.5497	-0.2746
H	3.8781	5.2003	1.7065
H	3.4069	7.4011	2.6978
H	5.1170	9.3391	-0.7323
H	5.5287	7.1294	-1.7730
H	6.0394	2.5118	-0.9111
H	4.9027	0.3356	-0.5780
X	3.4851	-1.9253	-0.1834
X	0.1582	-0.0904	0.5113
X	4.5815	11.6433	0.5672
X	2.9718	9.9115	3.6218
0	1	S
1	2	S
1	3	S
3	4	D
3	18	S
4	5	S
4	19	S
5	6	D
5	20	S
6	7	S
6	17	S
7	8	S
8	9	D
8	16	S
9	10	S
9	21	S
10	11	D
10	22	S
11	12	S
11	15	S
12	13	S
12	14	S
15	16	D
15	23	S
16	24	S
17	18	D
17	25	S
18	26	S
27	0	S
28	2	S
29	13	S
30	14	S
