18
15	16	17
O	1.2523	0.5603	-0.4371
C	2.4019	0.1650	-0.0248
O	2.9185	0.5293	1.0823
C	3.2001	-0.7634	-0.9776
C	2.8435	-0.7412	-2.3312
C	3.5095	-1.5506	-3.2413
C	4.5227	-2.3833	-2.7848
C	4.8661	-2.3973	-1.4267
N	4.2094	-1.5845	-0.5320
C	5.9982	-3.3686	-0.9868
O	6.3494	-3.4236	0.2375
O	6.5326	-4.0876	-1.9079
H	2.0429	-0.0855	-2.6621
H	3.2394	-1.5376	-4.2895
H	5.0520	-3.0301	-3.4780
X	4.4384	-1.5899	0.3384
X	1.7845	0.8831	0.7122
X	6.8717	-4.1181	-0.6474
0	1	S
1	2	S
1	3	S
3	4	D
3	8	S
4	5	S
4	12	S
5	6	D
5	13	S
6	7	S
6	14	S
7	8	S
7	9	S
9	10	S
9	11	S
8	15	S
16	0	S
17	10	S
