18
14	15	16	17
O	2.6973	0.0989	1.1969
C	2.3230	0.0141	-0.0229
O	1.3746	0.7071	-0.5256
C	3.0594	-0.9835	-0.9445
C	2.6819	-1.0969	-2.2826
C	3.3636	-1.9998	-3.0985
C	2.9693	-2.1368	-4.5860
O	3.6162	-2.9705	-5.3081
O	2.0147	-1.4087	-5.0227
N	4.3780	-2.7606	-2.5927
C	4.6681	-2.5852	-1.2997
N	4.0752	-1.7461	-0.4447
H	1.8733	-0.4920	-2.6823
H	5.4728	-3.1897	-0.9008
X	4.8366	-3.3533	-3.0911
X	4.3430	-1.6977	0.4132
X	1.7510	0.7890	0.6929
X	2.6630	-2.2432	-5.7414
0	1	S
1	2	S
1	3	S
3	4	D
3	11	S
4	5	S
4	12	S
5	6	S
5	9	S
6	7	S
6	8	S
9	10	S
10	11	S
10	13	S
9	14	S
11	15	S
16	0	S
17	7	S
