38
30	31	32	33	34	35	36	37
O	2.4455	1.3507	-0.1075
C	2.0406	0.1443	0.0024
O	0.9112	-0.2643	-0.4414
C	2.9477	-0.8595	0.7036
C	2.5462	-2.1972	0.8912
C	3.3729	-3.1452	1.5268
C	2.9191	-4.5896	1.7074
O	3.6777	-5.3828	2.3585
O	1.7966	-4.9389	1.2064
C	4.6479	-2.7165	1.9663
C	5.1272	-1.3997	1.7663
C	6.5407	-1.0102	2.0866
C	7.5978	-1.9391	1.9356
C	8.9587	-1.5941	2.1055
C	10.0599	-2.6221	1.8983
O	11.2755	-2.2454	2.0420
O	9.7275	-3.8152	1.5933
C	9.2550	-0.2575	2.4433
C	8.2477	0.7108	2.6325
C	8.6030	2.1523	2.9833
O	7.6494	2.9669	3.2208
O	9.8378	2.4781	3.0313
C	6.9014	0.3053	2.4617
C	4.2359	-0.4875	1.1551
H	1.5705	-2.5111	0.5236
H	5.2863	-3.4550	2.4520
H	7.3773	-2.9625	1.6364
H	10.2993	0.0381	2.5519
H	6.1263	1.0576	2.6080
H	4.5535	0.5391	0.9752
X	2.7308	2.2008	-0.1849
X	0.1173	-0.5515	-0.7533
X	4.2127	-5.9422	2.8177
X	1.0060	-5.1849	0.8536
X	12.1297	-1.9807	2.1430
X	9.4930	-4.6570	1.3781
X	6.9770	3.5413	3.3883
X	10.7074	2.7075	3.0651
0	1	S
1	2	S
1	3	S
3	4	D
3	23	S
4	5	S
4	24	S
5	6	S
5	9	D
6	7	S
6	8	S
9	10	S
9	25	S
10	11	S
10	23	D
11	12	D
11	22	S
12	13	S
12	26	S
13	14	S
13	17	D
14	15	S
14	16	S
17	18	S
17	27	S
18	19	S
18	22	D
19	20	S
19	21	S
22	28	S
23	29	S
30	0	S
31	2	S
32	7	S
33	8	S
34	15	S
35	16	S
36	20	S
37	21	S
