34
28	29	30	31	32	33
O	2.3073	-0.7512	-1.2330
C	2.2337	-0.1466	-0.1135
O	1.5375	-0.5390	0.8800
C	3.0321	1.1344	0.0500
C	3.0177	1.8611	1.2490
C	3.7611	3.0476	1.3953
C	4.5576	3.5551	0.3531
C	5.3725	4.7966	0.4970
C	5.9212	5.1939	1.7332
C	6.7386	6.3386	1.8748
C	7.3044	6.7155	3.2378
O	8.0441	7.7500	3.3220
O	7.0003	5.9699	4.2290
C	7.0199	7.0986	0.7213
C	6.4950	6.7518	-0.5384
C	6.8167	7.5489	-1.7952
O	6.3000	7.1530	-2.8938
O	7.5856	8.5617	-1.6897
C	5.6632	5.6148	-0.6150
C	4.5650	2.8126	-0.8438
C	3.8172	1.6343	-0.9958
H	2.4210	1.4960	2.0828
H	3.7029	3.5732	2.3454
H	5.7421	4.5973	2.6263
H	7.6653	7.9735	0.8047
H	5.2431	5.3750	-1.5904
H	5.1734	3.1370	-1.6846
H	3.8534	1.0965	-1.9406
X	2.3593	-1.1782	-2.0236
X	1.0461	-0.8160	1.5813
X	8.5664	8.4805	3.3815
X	6.7860	5.4444	4.9275
X	5.9358	6.8740	-3.6681
X	8.1279	9.2761	-1.6153
0	1	S
1	2	S
1	3	S
3	4	D
3	20	S
4	5	S
4	21	S
5	6	D
5	22	S
6	7	S
6	19	S
7	8	D
7	18	S
8	9	S
8	23	S
9	10	S
9	13	D
10	11	S
10	12	S
13	14	S
13	24	S
14	15	S
14	18	D
15	16	S
15	17	S
18	25	S
19	20	D
19	26	S
20	27	S
28	0	S
29	2	S
30	11	S
31	12	S
32	16	S
33	17	S
