20
15	16	17	18	19
O	1.1649	-0.5720	-0.2817
C	2.2080	0.0959	0.0093
O	2.6790	1.0492	-0.6968
C	2.9489	-0.2515	1.2735
C	4.0822	0.4695	1.6345
N	4.8292	0.2460	2.7478
C	4.4105	-0.7733	3.5433
C	3.3001	-1.5749	3.2984
C	2.9478	-2.6844	4.2538
O	1.9226	-3.3940	4.0018
O	3.7095	-2.8439	5.2649
C	2.5613	-1.2912	2.1365
H	4.4355	1.2838	1.0062
H	5.0213	-0.9403	4.4272
H	1.6803	-1.8872	1.9000
X	5.5544	0.7410	2.9455
X	0.4271	-1.0444	-0.4875
X	3.0111	1.7214	-1.1947
X	1.1972	-3.8961	3.8235
X	4.2468	-2.9564	5.9781
0	1	S
1	2	S
1	3	S
3	4	D
3	11	S
4	5	S
4	12	S
5	6	S
6	7	S
6	13	S
7	8	S
7	11	D
8	9	S
8	10	S
11	14	S
5	15	S
16	0	S
17	2	S
18	9	S
19	10	S
