14
10	11	12	13
O	0.9226	-0.0022	0.0807
C	2.1848	-0.0030	-0.0550
O	2.8565	-0.0094	-1.1264
C	2.9614	0.0049	1.2666
C	4.3045	0.0055	1.3749
C	5.0920	0.0134	2.6896
O	4.4289	0.0198	3.7669
O	6.3528	0.0125	2.5443
H	2.3642	0.0103	2.1750
H	4.8992	0.0001	0.4646
X	0.0278	-0.0016	0.1769
X	3.3346	-0.0140	-1.8889
X	3.9571	0.0244	4.5333
X	7.2469	0.0119	2.4413
0	1	S
1	2	S
1	3	S
3	4	D
3	8	S
4	5	S
4	9	S
5	6	S
5	7	S
10	0	S
11	2	S
12	6	S
13	7	S
