19
15	16	17	18
O	1.1348	-0.7256	-0.2607
C	2.1932	-0.0401	-0.1617
O	2.6475	0.8431	-0.9457
C	3.0623	-0.3245	1.0957
C	4.2152	0.3447	1.3037
C	4.9677	0.0103	2.4614
N	6.1738	0.4653	2.8642
N	6.5045	-0.1767	3.9131
N	5.4912	-1.1561	4.2785
C	4.5757	-1.0247	3.3767
C	3.2987	-1.7078	3.1382
C	2.6035	-1.3469	2.0441
H	4.5743	1.1027	0.6177
H	2.9690	-2.4663	3.8315
H	1.6508	-1.8260	1.8223
X	6.6837	1.1043	2.4878
X	7.2874	0.0198	4.3112
X	5.4391	-1.7484	4.9542
X	1.5224	0.1794	-1.1322
0	1	S
1	2	S
1	3	S
3	4	D
3	11	S
4	5	S
4	12	S
5	6	S
5	9	S
6	7	S
7	8	S
8	9	S
9	10	S
10	11	D
10	13	S
11	14	S
6	15	S
7	16	S
8	17	S
18	0	S
