17
13	14	15	16
O	2.9185	-1.2164	0.0301
C	2.4375	-0.0407	0.0867
O	1.4359	0.3064	0.8019
C	3.0744	1.0298	-0.7387
C	2.6569	2.3505	-0.7635
C	3.5009	3.0403	-1.6597
C	4.4063	2.1202	-2.1636
C	5.4682	2.4434	-3.1635
O	6.2413	1.5109	-3.5518
O	5.5246	3.6556	-3.5669
O	4.1497	0.8902	-1.5929
H	1.8304	2.7430	-0.1892
H	3.4728	4.0854	-1.9331
X	3.2590	-2.0486	-0.0100
X	0.7310	0.5507	1.3053
X	6.7883	0.8511	-3.8265
X	5.5643	4.5087	-3.8508
0	1	S
1	2	S
1	3	S
3	4	D
3	10	S
4	5	S
4	11	S
5	6	D
5	12	S
6	7	S
6	10	S
7	8	S
7	9	S
13	0	S
14	2	S
15	8	S
16	9	S
