39
35	36	37	38
O	2.1632	-1.1865	-0.1224
C	2.1874	0.0503	0.1745
O	1.6203	0.5770	1.1852
C	2.9513	0.9856	-0.7489
C	3.0473	2.3608	-0.4841
C	3.7089	3.2341	-1.3621
C	4.2783	2.7738	-2.5661
C	4.9232	3.7645	-3.6130
C	6.4349	3.9879	-3.3058
C	7.0796	3.3793	-2.2060
C	8.4447	3.5720	-1.9564
C	9.2234	4.3810	-2.7835
C	10.7036	4.5838	-2.5224
O	11.3444	5.3224	-3.3351
O	11.2014	3.9936	-1.5126
C	8.5885	4.9960	-3.8740
C	7.2335	4.8102	-4.1361
C	4.7653	3.2029	-5.0602
F	3.7214	2.3492	-5.2067
F	4.5955	4.1275	-6.0340
F	5.8655	2.4969	-5.4467
C	4.1672	5.1310	-3.5970
F	2.8880	5.0447	-3.1524
F	4.7757	6.0314	-2.7754
F	4.0763	5.7644	-4.7886
C	4.2661	1.3800	-2.7759
C	3.5998	0.5117	-1.8984
H	2.5848	2.7506	0.4220
H	3.7491	4.2813	-1.0732
H	6.5510	2.7317	-1.5113
H	8.9049	3.0819	-1.0964
H	9.1837	5.6303	-4.5296
H	6.8001	5.3279	-4.9921
H	4.7579	0.9277	-3.6346
H	3.5722	-0.5566	-2.1113
X	2.1461	-2.0615	-0.3324
X	1.2194	0.9494	1.8998
X	11.7980	5.8452	-3.9104
X	11.5539	3.5757	-0.7976
0	1	S
1	2	S
1	3	S
3	4	D
3	26	S
4	5	S
4	27	S
5	6	D
5	28	S
6	7	S
6	25	S
7	8	S
7	17	S
7	21	S
8	9	D
8	16	S
9	10	S
9	29	S
10	11	D
10	30	S
11	12	S
11	15	S
12	13	S
12	14	S
15	16	D
15	31	S
16	32	S
17	18	S
17	19	S
17	20	S
21	22	S
21	23	S
21	24	S
25	26	D
25	33	S
26	34	S
35	0	S
36	2	S
37	13	S
38	14	S
