18
12	13	14	15	16	17
O	2.8417	-1.1833	-0.1201
C	2.1954	-0.0634	-0.0727
O	0.9134	-0.0384	0.0103
C	2.9738	1.2435	-0.2751
C	2.6003	2.5315	0.1596
C	1.5464	2.8778	1.2221
O	1.0722	4.0812	1.2544
O	1.2385	2.0203	2.1278
N	3.4549	3.4342	-0.4775
C	4.3734	2.7115	-1.1347
N	4.1470	1.3950	-1.0183
H	5.1964	3.1377	-1.6880
X	3.4195	4.3334	-0.4664
X	4.6708	0.7505	-1.3651
X	3.2913	-1.9623	-0.1531
X	0.0155	-0.0209	0.0684
X	0.7424	4.9183	1.2769
X	1.0228	1.4196	2.7623
0	1	S
1	2	S
1	3	S
3	4	D
3	10	S
4	5	S
4	8	S
5	6	S
5	7	S
8	9	S
9	10	S
9	11	S
8	12	S
10	13	S
14	0	S
15	2	S
16	6	S
17	7	S
