18
12	13	14	15	16	17
O	1.0335	-0.5395	0.7437
C	1.9907	-0.2153	-0.0280
O	2.1932	-0.5953	-1.2234
C	2.8744	0.9263	0.4593
N	2.5474	2.2789	0.3530
C	3.7029	2.8647	0.3315
N	4.8284	2.0813	0.4438
C	4.3377	0.8584	0.5109
C	5.2047	-0.3677	0.6873
O	4.6992	-1.3443	1.3261
O	6.4083	-0.2912	0.2645
H	3.8049	3.9557	0.2363
X	1.7490	2.6918	0.3073
X	5.6965	2.3174	0.4681
X	0.3560	-0.7690	1.2899
X	2.3366	-0.8645	-2.0701
X	4.3415	-2.0354	1.7782
X	7.2559	-0.2373	-0.0332
0	1	S
1	2	S
1	3	S
3	4	S
3	7	S
4	5	S
5	6	S
5	11	S
6	7	S
7	8	S
8	9	S
8	10	S
4	12	S
6	13	S
14	0	S
15	2	S
16	9	S
17	10	S
