20
14	15	16	17	18	19
O	1.5777	1.0851	-0.3206
C	2.1504	-0.0482	-0.1637
O	1.9263	-1.0779	-0.8901
C	2.9939	-0.2481	1.0979
N	2.6309	-1.2951	1.9412
C	3.3233	-1.4235	3.0830
C	4.3440	-0.5695	3.4286
N	4.7303	0.4473	2.6440
C	4.0435	0.6181	1.4458
C	4.5303	1.7275	0.5126
O	4.7942	2.8657	1.0387
O	4.8100	1.4158	-0.6961
H	3.0262	-2.2432	3.7221
H	4.8911	-0.6810	4.3559
X	1.9670	-1.8730	1.7534
X	5.4068	0.9806	2.9047
X	1.1748	1.8823	-0.4310
X	1.7687	-1.8020	-1.4009
X	4.9796	3.6651	1.4082
X	5.0068	1.1965	-1.5465
0	1	S
1	2	S
1	3	S
3	4	S
3	8	S
4	5	S
5	6	D
5	12	S
6	7	S
6	13	S
7	8	S
8	9	S
9	10	S
9	11	S
4	14	S
7	15	S
16	0	S
17	2	S
18	10	S
19	11	S
