26
23	24	25
O	2.7011	-0.1924	1.2576
C	2.3114	0.0569	0.0729
O	1.3200	0.7858	-0.2475
C	3.0992	-0.5727	-1.0592
C	2.7348	-0.3703	-2.3965
C	3.4560	-0.9652	-3.4410
C	4.5773	-1.7777	-3.1924
C	5.3379	-2.4182	-4.2924
C	5.4703	-1.8163	-5.5528
C	6.1922	-2.4584	-6.5491
N	6.8047	-3.6479	-6.3885
C	6.6790	-4.2210	-5.1756
C	5.9670	-3.6609	-4.1243
C	4.9416	-1.9609	-1.8468
C	4.2145	-1.3775	-0.8009
H	1.8717	0.2560	-2.6185
H	3.1061	-0.7874	-4.4536
H	5.0241	-0.8497	-5.7667
H	6.2994	-2.0112	-7.5325
H	7.1785	-5.1779	-5.0583
H	5.9011	-4.2040	-3.1874
H	5.8090	-2.5571	-1.5769
H	4.5156	-1.5482	0.2322
X	7.2707	-4.0371	-7.0528
X	2.9769	-0.3688	2.0959
X	0.6183	1.3017	-0.4743
0	1	S
1	2	S
1	3	S
3	4	D
3	14	S
4	5	S
4	15	S
5	6	D
5	16	S
6	7	S
6	13	S
7	8	D
7	12	S
8	9	S
8	17	S
9	10	S
9	18	S
10	11	S
11	12	D
11	19	S
12	20	S
13	14	D
13	21	S
14	22	S
10	23	S
24	0	S
25	2	S
