21
15	16	17	18	19	20
O	0.9808	0.2342	-0.3892
C	2.1749	0.1523	0.0554
O	2.7792	1.1192	0.6305
C	2.9095	-1.1536	-0.1074
C	4.0194	-1.4621	0.6954
C	4.7145	-2.6767	0.5708
C	5.8826	-2.9919	1.4743
O	6.4864	-4.1071	1.3222
O	6.2159	-2.1312	2.3581
C	4.2798	-3.5864	-0.4111
C	3.1796	-3.3147	-1.2450
C	2.7370	-4.2904	-2.3089
O	1.7295	-3.9859	-3.0324
O	3.3916	-5.3789	-2.4451
C	2.5043	-2.0959	-1.0657
X	0.1391	0.2919	-0.7026
X	3.2051	1.8006	1.0358
X	6.9119	-4.8929	1.2150
X	6.4506	-1.5250	2.9805
X	1.0195	-3.7713	-3.5422
X	3.8528	-6.1458	-2.5411
0	1	S
1	2	S
1	3	S
3	4	D
3	14	S
4	5	S
5	6	S
5	9	D
6	7	S
6	8	S
9	10	S
10	11	S
10	14	D
11	12	S
11	13	S
15	0	S
16	2	S
17	7	S
18	8	S
19	12	S
20	13	S
