30
24	25	26	27	28	29
O	2.6894	0.6830	-1.0634
C	2.1627	0.2241	0.0179
O	0.9456	0.4705	0.3468
C	3.0459	-0.6660	0.9374
C	2.6852	-2.0503	1.1919
C	1.3365	-2.6045	0.6859
O	0.4563	-2.9682	1.5655
O	1.1020	-2.6867	-0.5809
C	3.5457	-2.8947	2.0180
C	3.3339	-4.4477	1.9254
O	3.3876	-5.2307	2.9435
O	3.1523	-4.9628	0.7517
C	4.7141	-2.2965	2.6361
C	5.3084	-2.7322	4.0344
O	6.1241	-1.9324	4.6508
O	4.8877	-3.7611	4.6754
C	5.2267	-1.0335	2.0969
C	6.7980	-0.9396	1.9188
O	7.3899	0.1045	1.4752
O	7.5023	-2.0205	2.0669
C	4.3009	-0.1243	1.4476
C	4.4211	1.4362	1.5769
O	5.5137	2.0796	1.3832
O	3.3819	2.0878	1.9788
X	1.4811	0.9110	-0.6917
X	0.2879	-3.0354	0.2925
X	3.1720	-5.6346	1.8546
X	5.7596	-3.0630	5.0960
X	7.9883	-0.8685	1.7839
X	4.5129	2.6286	1.6757
0	1	S
1	2	S
1	3	S
3	4	D
3	20	S
4	5	S
4	8	S
5	6	S
5	7	S
8	9	S
8	12	D
9	10	S
9	11	S
12	13	S
12	16	S
13	14	S
13	15	S
16	17	S
16	20	D
17	18	S
17	19	S
20	21	S
21	22	S
21	23	S
24	0	S
25	6	S
26	10	S
27	14	S
28	18	S
29	22	S
