16
12	13	14	15
O	1.1123	1.3356	-0.4510
C	2.1708	0.8543	0.0548
O	2.9759	1.4353	0.8469
C	2.5198	-0.5667	-0.3353
C	1.7555	-1.3950	-1.2386
C	1.9810	-2.9108	-1.5090
C	3.0131	-3.7096	-0.8894
C	3.4062	-5.1065	-1.3356
O	4.4843	-5.5689	-0.8541
O	2.6142	-5.6833	-2.1401
C	3.7767	-2.8858	0.0179
C	3.5451	-1.3727	0.2824
X	0.3610	1.6772	-0.8100
X	3.5464	1.8470	1.4082
X	5.2495	-5.8971	-0.5124
X	2.0519	-6.0928	-2.7112
0	1	S
1	2	S
1	3	S
3	4	S
3	11	S
4	5	S
5	6	S
6	7	S
6	10	S
7	8	S
7	9	S
10	11	S
12	0	S
13	2	S
14	8	S
15	9	S
