34
28	29	30	31	32	33
O	2.5920	-1.2721	0.0183
C	2.2563	-0.0362	-0.0652
O	1.3605	0.4950	0.6755
C	2.9587	0.8313	-1.0934
C	2.6588	2.1946	-1.2413
C	3.3040	2.9949	-2.2119
C	4.2633	2.4790	-3.0944
N	4.9008	3.1616	-4.0822
N	4.5262	4.5901	-4.2656
C	5.1697	5.2247	-5.2872
C	6.1378	4.6459	-6.1236
C	6.7732	5.3569	-7.1654
C	6.4743	6.7017	-7.4225
C	7.1758	7.4844	-8.5200
O	6.8486	8.7133	-8.6938
O	8.0637	6.8938	-9.2252
C	5.4980	7.2916	-6.6036
C	4.8675	6.5675	-5.5664
C	4.5640	1.1171	-2.9234
C	3.9355	0.3104	-1.9516
H	1.9080	2.6499	-0.6051
H	3.0482	4.0463	-2.2986
H	6.3922	3.6040	-5.9509
H	7.5101	4.8411	-7.7702
H	5.2244	8.3291	-6.7628
H	4.1168	7.0557	-4.9519
H	5.3053	0.6770	-3.5859
H	4.2110	-0.7362	-1.8760
X	5.5111	2.7118	-4.5672
X	3.9309	5.0543	-3.7755
X	2.8274	-2.1388	0.0769
X	0.7297	0.8691	1.1971
X	6.6192	9.5750	-8.8157
X	8.6888	6.4780	-9.7216
0	1	S
1	2	S
1	3	S
3	4	D
3	19	S
4	5	S
4	20	S
5	6	D
5	21	S
6	7	S
6	18	S
7	8	S
8	9	S
9	10	D
9	17	S
10	11	S
10	22	S
11	12	D
11	23	S
12	13	S
12	16	S
13	14	S
13	15	S
16	17	D
16	24	S
17	25	S
18	19	D
18	26	S
19	27	S
7	28	S
8	29	S
30	0	S
31	2	S
32	14	S
33	15	S
