40
32	33	34	35	36	37	38	39
O	2.5457	0.0494	-1.3044
C	2.2065	-0.0310	-0.0772
O	1.2791	-0.7916	0.3579
C	2.9468	0.8326	0.9340
C	2.6255	0.7836	2.3072
C	3.3078	1.5722	3.2454
C	2.9901	1.4726	4.6500
C	2.7319	1.3563	5.8221
C	2.4118	1.1726	7.2186
C	3.0028	1.9770	8.2055
C	2.6998	1.7995	9.5742
C	3.3381	2.6760	10.6445
O	3.0251	2.4693	11.8637
O	4.1564	3.5788	10.2616
C	1.7842	0.7828	9.9222
C	1.1724	-0.0424	8.9543
C	0.1874	-1.1317	9.3539
O	-0.3271	-1.8365	8.4235
O	-0.0751	-1.2859	10.5928
C	1.5041	0.1743	7.6008
C	4.3147	2.4440	2.8055
C	4.6662	2.5332	1.4413
C	5.7518	3.4910	0.9700
O	6.0340	3.5234	-0.2730
O	6.3228	4.2175	1.8497
C	3.9762	1.7085	0.5269
H	1.8327	0.1128	2.6352
H	3.7097	2.7544	7.9215
H	1.5407	0.6298	10.9749
H	1.0400	-0.4551	6.8417
H	4.8438	3.0674	3.5240
H	4.2442	1.7521	-0.5294
X	2.7850	0.1061	-2.1701
X	0.6249	-1.3281	0.6648
X	2.8043	2.3235	12.7239
X	4.7330	4.2150	9.9918
X	-0.6901	-2.3338	7.7670
X	-0.2603	-1.3947	11.4668
X	6.2332	3.5463	-1.1504
X	6.7256	4.7300	2.4703
0	1	S
1	2	S
1	3	S
3	4	D
3	25	S
4	5	S
4	26	S
5	6	S
5	20	D
6	7	A
7	8	S
8	9	D
8	19	S
9	10	S
9	27	S
10	11	S
10	14	D
11	12	S
11	13	S
14	15	S
14	28	S
15	16	S
15	19	D
16	17	S
16	18	S
19	29	S
20	21	S
20	30	S
21	22	S
21	25	D
22	23	S
22	24	S
25	31	S
32	0	S
33	2	S
34	12	S
35	13	S
36	17	S
37	18	S
38	23	S
39	24	S
