16
12	13	14	15
O	2.7723	-0.0502	1.3079
C	2.3350	-0.0284	0.1121
O	1.2737	0.5749	-0.2640
C	3.1250	-0.7724	-0.9661
C	2.6344	-0.7562	-2.2713
N	3.2486	-1.3711	-3.3231
C	4.3918	-2.0143	-3.0091
C	4.8985	-2.0514	-1.7230
N	4.2910	-1.4427	-0.6855
H	1.7115	-0.2349	-2.5120
H	4.8995	-2.5065	-3.8287
H	5.8163	-2.5753	-1.4868
X	2.9236	-1.3537	-4.1622
X	4.6418	-1.4814	0.1424
X	3.0814	-0.0656	2.1530
X	0.5260	1.0000	-0.5290
0	1	S
1	2	S
1	3	S
3	4	D
3	8	S
4	5	S
4	9	S
5	6	S
6	7	S
6	10	S
7	8	S
7	11	S
5	12	S
8	13	S
14	0	S
15	2	S
