22
18	19	20	21
N	2.3394	-0.0105	-0.2027
C	0.9396	-0.0002	-0.0317
C	0.2391	1.2075	-0.0492
C	-1.1670	1.2489	0.0086
C	-1.8821	2.5902	0.0363
O	-3.1533	2.5977	0.0938
O	-1.1533	3.6385	0.0088
C	-1.8647	0.0219	0.0336
C	-1.1871	-1.2155	-0.0050
C	-1.9240	-2.5444	0.0039
O	-1.2126	-3.6051	-0.0210
O	-3.1966	-2.5322	0.0414
C	0.2196	-1.1964	-0.0593
H	2.7549	0.8335	0.1752
H	2.7420	-0.8618	0.1730
H	0.7792	2.1500	-0.0979
H	-2.9548	0.0308	0.0694
H	0.7447	-2.1470	-0.1153
X	-4.0524	2.6030	0.1345
X	-0.6397	4.3773	-0.0106
X	-0.7114	-4.3524	-0.0385
X	-4.0962	-2.5236	0.0679
0	1	S
0	13	S
0	14	S
1	2	D
1	12	S
2	3	S
2	15	S
3	4	S
3	7	D
4	5	S
4	6	S
7	8	S
7	16	S
8	9	S
8	12	D
9	10	S
9	11	S
12	17	S
18	5	S
19	6	S
20	10	S
21	11	S
