19
15	16	17	18
O	1.2336	0.6834	0.1845
C	2.3057	0.0477	-0.0309
O	2.7687	-0.9625	0.5736
C	3.1793	0.5818	-1.2008
C	4.3472	-0.0154	-1.5192
C	5.0939	0.5363	-2.5943
C	4.6684	1.6944	-3.3296
N	5.5606	1.9767	-4.2204
N	6.5891	0.9624	-4.0370
N	6.2888	0.1585	-3.0968
C	3.3881	2.3103	-2.9647
C	2.7050	1.7539	-1.9465
H	4.7174	-0.8813	-0.9827
H	3.0432	3.1747	-3.5119
H	1.7499	2.1752	-1.6376
X	5.4880	2.6675	-4.7927
X	7.3639	0.8397	-4.4783
X	6.8098	-0.5297	-2.8419
X	1.6314	-0.3645	0.8721
0	1	S
1	2	S
1	3	S
3	4	D
3	11	S
4	5	S
4	12	S
5	6	S
5	9	S
6	7	S
6	10	S
7	8	S
8	9	S
10	11	D
10	13	S
11	14	S
7	15	S
8	16	S
9	17	S
18	0	S
