38
31	32	33	34	35	36	37
O	2.7226	1.1918	0.2016
C	2.3019	0.0188	-0.0480
O	1.2357	-0.2619	-0.6850
C	3.1474	-1.1459	0.4491
C	2.7568	-2.4755	0.2141
C	3.5360	-3.5473	0.6659
C	4.7196	-3.3034	1.3643
C	5.5421	-4.4239	1.8783
N	5.1847	-5.6569	1.7183
C	5.9331	-6.7005	2.3109
C	6.6426	-6.5647	3.5123
C	7.2842	-7.6543	4.1342
C	8.0382	-7.4460	5.4372
O	8.6044	-8.4507	5.9774
O	8.0663	-6.2615	5.9142
C	7.1735	-8.9202	3.5250
C	6.4559	-9.1061	2.3244
C	6.2904	-10.4829	1.6986
O	5.6356	-10.5611	0.6056
O	6.8072	-11.4830	2.2962
C	5.8592	-7.9739	1.7307
C	5.1234	-1.9897	1.6178
C	4.3399	-0.9209	1.1606
H	1.8320	-2.6723	-0.3250
H	3.2103	-4.5677	0.4786
H	6.4610	-4.1361	2.4169
H	6.6856	-5.6043	4.0181
H	7.6368	-9.7825	4.0059
H	5.2935	-8.1016	0.8098
H	6.0325	-1.7831	2.1752
H	4.6513	0.1031	1.3593
X	4.4480	-5.7831	1.2169
X	3.0205	2.0225	0.3784
X	0.4821	-0.4603	-1.1352
X	9.0045	-9.1607	6.3592
X	8.0861	-5.4269	6.2503
X	5.1739	-10.6162	-0.1650
X	7.1721	-12.1892	2.7182
0	1	S
1	2	S
1	3	S
3	4	D
3	22	S
4	5	S
4	23	S
5	6	D
5	24	S
6	7	S
6	21	S
7	8	S
7	25	S
8	9	S
9	10	D
9	20	S
10	11	S
10	26	S
11	12	S
11	15	D
12	13	S
12	14	S
15	16	S
15	27	S
16	17	S
16	20	D
17	18	S
17	19	S
20	28	S
21	22	D
21	29	S
22	30	S
8	31	S
32	0	S
33	2	S
34	13	S
35	14	S
36	18	S
37	19	S
