20
14	15	16	17	18	19
O	2.7765	0.3040	1.1889
C	2.3473	0.0027	0.0251
O	1.2998	0.5164	-0.5021
C	3.1170	-1.0326	-0.8051
C	2.6246	-1.3625	-2.0655
N	3.2122	-2.2555	-2.9116
C	4.3621	-2.8484	-2.4611
C	5.1444	-3.8634	-3.3034
O	6.2047	-4.3610	-2.7876
O	4.7131	-4.1642	-4.4670
C	4.8510	-2.5232	-1.1979
N	4.2628	-1.6309	-0.3517
H	1.7165	-0.9037	-2.4455
H	5.7591	-2.9821	-0.8184
X	2.8619	-2.4424	-3.7193
X	4.6102	-1.4477	0.4581
X	3.0791	0.5164	2.0094
X	0.5634	0.8775	-0.8727
X	6.9503	-4.7109	-2.4249
X	4.4091	-4.3762	-5.2871
0	1	S
1	2	S
1	3	S
3	4	D
3	11	S
4	5	S
4	12	S
5	6	S
6	7	S
6	10	S
7	8	S
7	9	S
10	11	S
10	13	S
5	14	S
11	15	S
16	0	S
17	2	S
18	8	S
19	9	S
