20
14	15	16	17	18	19
O	2.5725	1.2305	-0.0312
C	2.1754	0.0150	0.0045
O	1.1249	-0.4074	-0.5870
C	3.0142	-1.0027	0.8082
C	2.6128	-2.3373	0.8651
C	3.3978	-3.2442	1.5768
C	2.9894	-4.7329	1.6305
O	3.7345	-5.5407	2.2840
O	1.9262	-5.0851	1.0159
N	4.5291	-2.8277	2.2174
C	4.8298	-1.5294	2.1142
N	4.1465	-0.5921	1.4504
H	1.7096	-2.6649	0.3588
H	5.7269	-1.2011	2.6234
X	5.0550	-3.3860	2.6883
X	4.4309	0.2617	1.4367
X	2.8519	2.0857	-0.0563
X	0.3848	-0.7050	-1.0037
X	4.2590	-6.1093	2.7440
X	1.1772	-5.3332	0.5829
0	1	S
1	2	S
1	3	S
3	4	D
3	11	S
4	5	S
4	12	S
5	6	S
5	9	S
6	7	S
6	8	S
9	10	S
10	11	S
10	13	S
9	14	S
11	15	S
16	0	S
17	2	S
18	7	S
19	8	S
