24
20	21	22	23
N	1.0622	0.1503	0.2121
C	2.4453	0.0839	-0.0877
C	3.1703	1.2866	-0.1436
C	4.5671	1.3181	-0.3244
C	5.2688	2.6591	-0.4973
O	6.5215	2.6472	-0.7642
O	4.5650	3.7196	-0.4085
C	5.2465	0.0881	-0.3959
N	6.6615	0.0212	-0.4046
C	4.5253	-1.1162	-0.2909
C	3.1214	-1.1489	-0.1619
C	2.4009	-2.4869	-0.1764
O	3.1081	-3.5478	-0.2265
O	1.1213	-2.4748	-0.1755
H	0.6025	0.8670	-0.3310
H	0.6655	-0.7942	0.0421
H	2.6389	2.2339	-0.0503
H	7.0120	0.9669	-0.6531
H	6.9928	-0.6943	-1.0342
H	5.0654	-2.0610	-0.3137
X	7.4017	2.6388	-0.9517
X	4.0685	4.4677	-0.3459
X	3.6069	-4.2961	-0.2618
X	0.2213	-2.4663	-0.1749
0	1	S
0	14	S
0	15	S
1	2	D
1	10	S
2	3	S
2	16	S
3	4	S
3	7	D
4	5	S
4	6	S
7	8	S
7	9	S
8	17	S
8	18	S
9	10	D
9	19	S
10	11	S
11	12	S
11	13	S
20	5	S
21	6	S
22	12	S
23	13	S
