20
15	16	17	18	19
O	2.6087	-0.5041	-1.0112
C	2.2804	0.0127	0.1023
O	1.3364	-0.4073	0.8519
C	3.0565	1.2180	0.5907
C	2.7232	1.8240	1.8039
C	3.4428	2.9268	2.2227
N	4.4579	3.4820	1.5307
C	4.8010	2.9106	0.3298
C	5.9437	3.5267	-0.5215
O	6.2416	2.9637	-1.6299
O	6.5348	4.5716	-0.0789
C	4.1189	1.7763	-0.1460
H	1.9090	1.4328	2.4047
H	3.2093	3.4167	3.1608
H	4.4082	1.3303	-1.0955
X	4.8877	4.2026	1.8562
X	2.8412	-0.8701	-1.7998
X	0.6708	-0.7034	1.3804
X	6.4513	2.5673	-2.4102
X	6.9506	5.3066	0.2324
0	1	S
1	2	S
1	3	S
3	4	D
3	11	S
4	5	S
4	12	S
5	6	S
5	13	S
6	7	S
7	8	S
7	11	D
8	9	S
8	10	S
11	14	S
6	15	S
16	0	S
17	2	S
18	9	S
19	10	S
