14
10	11	12	13
O	1.2458	-0.1786	-0.6112
C	2.3512	0.0864	-0.0570
O	2.8985	1.2097	0.1372
C	3.1253	-1.1048	0.4384
C	2.8267	-2.4004	0.3913
N	3.8272	-3.1649	0.9445
N	4.7556	-2.3882	1.3319
C	4.3987	-1.0859	1.0611
H	1.9315	-2.8350	-0.0261
H	5.0646	-0.2451	1.1613
X	3.8690	-4.0588	1.0407
X	5.5084	-2.6960	1.7174
X	0.4591	-0.3672	-1.0056
X	3.2880	2.0092	0.2754
0	1	S
1	2	S
1	3	S
3	4	D
3	7	S
4	5	S
4	8	S
5	6	S
6	7	S
7	9	S
5	10	S
6	11	S
12	0	S
13	2	S
