23
19	20	21	22
C	2.4709	-0.0162	-0.0131
C	0.9742	0.0039	-0.0022
C	0.2731	1.2156	-0.0005
C	-1.1337	1.2547	0.0009
C	-1.8540	2.5952	0.0044
O	-3.1262	2.6004	0.0061
O	-1.1269	3.6462	0.0055
C	-1.8306	0.0268	-0.0013
C	-1.1540	-1.2133	0.0001
C	-1.9007	-2.5399	0.0031
O	-1.1949	-3.6045	0.0052
O	-3.1736	-2.5199	0.0043
C	0.2531	-1.1971	-0.0007
H	2.8863	0.9971	0.0020
H	2.8360	-0.5131	-0.9177
H	2.8502	-0.5449	0.8670
H	0.8140	2.1603	-0.0002
H	-2.9211	0.0358	-0.0031
H	0.7813	-2.1490	-0.0003
X	-4.0262	2.6041	0.0073
X	-0.6149	4.3863	0.0063
X	-0.6976	-4.3546	0.0067
X	-4.0735	-2.5058	0.0051
0	1	S
0	13	S
0	14	S
0	15	S
1	2	D
1	12	S
2	3	S
2	16	S
3	4	S
3	7	D
4	5	S
4	6	S
7	8	S
7	17	S
8	9	S
8	12	D
9	10	S
9	11	S
12	18	S
19	5	S
20	6	S
21	10	S
22	11	S
