42
36	37	38	39	40	41
O	1.9430	-1.9827	0.9076
C	2.7457	-1.1295	0.4237
O	3.0007	-0.8971	-0.7905
C	3.4718	-0.2793	1.4655
C	4.4312	0.7345	0.8420
N	5.1170	1.5949	1.8323
C	6.0261	0.9982	2.6870
O	6.2696	-0.2057	2.5968
N	6.6376	1.8187	3.6208
C	7.4256	1.2349	4.7354
C	8.2997	0.0186	4.4441
C	9.1821	-0.3511	5.6339
O	8.7324	-0.0730	6.7809
O	10.2688	-0.9280	5.3336
C	6.2871	3.1562	3.7566
O	6.5642	3.8074	4.7713
N	5.5795	3.7212	2.7102
C	5.2490	5.1632	2.7737
C	6.4460	6.0851	2.5704
C	6.0492	7.5632	2.5412
O	4.8295	7.8376	2.7173
O	7.0111	8.3617	2.3376
C	5.0044	2.9670	1.7037
O	4.4221	3.4896	0.7495
H	4.0047	-0.9676	2.1297
H	2.7233	0.2392	2.0767
H	3.8731	1.3561	0.1340
H	5.2072	0.2165	0.2675
H	6.6999	0.9970	5.5229
H	8.0739	2.0251	5.1370
H	8.9221	0.2001	3.5608
H	7.6894	-0.8704	4.2540
H	4.8035	5.3513	3.7587
H	4.4735	5.3984	2.0350
H	6.9557	5.8427	1.6301
H	7.1742	5.9525	3.3784
X	1.3730	-2.5885	1.2512
X	3.1825	-0.7314	-1.6562
X	8.4119	0.1252	7.5982
X	11.0411	-1.3380	5.1202
X	3.9600	8.0332	2.8428
X	7.6946	8.9291	2.1929
0	1	S
1	2	S
1	3	S
3	4	S
3	24	S
3	25	S
4	5	S
4	26	S
4	27	S
5	6	S
5	22	S
6	7	D
6	8	S
8	9	S
8	14	S
9	10	S
9	28	S
9	29	S
10	11	S
10	30	S
10	31	S
11	12	S
11	13	S
14	15	D
14	16	S
16	17	S
16	22	S
17	18	S
17	32	S
17	33	S
18	19	S
18	34	S
18	35	S
19	20	S
19	21	S
22	23	D
36	0	S
37	2	S
38	12	S
39	13	S
40	20	S
41	21	S
