26
23	24	25
O	2.6784	-0.3829	-1.2167
C	2.1685	-0.0389	-0.1035
O	1.0583	-0.4412	0.3638
C	2.9586	0.9435	0.7413
C	2.4420	1.4263	1.9514
C	3.1690	2.3274	2.7239
C	4.4331	2.7468	2.3029
C	5.0091	2.2653	1.1128
C	6.3879	2.6391	0.7183
C	7.3894	2.8241	1.6821
C	8.6785	3.1449	1.2812
N	9.0524	3.2935	-0.0058
C	8.0861	3.1026	-0.9266
C	6.7681	2.7885	-0.6224
C	4.2383	1.3769	0.3394
H	1.4626	1.0858	2.2834
H	2.7526	2.6935	3.6571
H	4.9674	3.4583	2.9264
H	7.1842	2.6952	2.7392
H	9.4670	3.2848	2.0124
H	8.4046	3.2077	-1.9593
H	6.0525	2.6581	-1.4290
H	4.6307	0.9690	-0.5923
X	9.8958	3.5071	-0.2362
X	3.0392	-0.6263	-2.0044
X	0.2715	-0.7263	0.6950
0	1	S
1	2	S
1	3	S
3	4	D
3	14	S
4	5	S
4	15	S
5	6	D
5	16	S
6	7	S
6	17	S
7	8	S
7	14	D
8	9	D
8	13	S
9	10	S
9	18	S
10	11	S
10	19	S
11	12	S
12	13	D
12	20	S
13	21	S
14	22	S
11	23	S
24	0	S
25	2	S
