33
27	28	29	30	31	32
O	2.4457	-2.6922	-2.0476
C	2.5278	-1.4485	-2.2920
O	2.1876	-0.8470	-3.3571
C	2.9206	-0.5598	-1.1100
C	4.3985	-0.3408	-0.8705
C	4.9288	0.9624	-0.8121
C	6.2689	1.1887	-0.4623
C	6.8885	2.5682	-0.3740
C	5.9950	3.8070	-0.4526
O	5.9349	4.3801	-1.5834
O	5.4965	4.2096	0.6425
C	7.0918	0.0719	-0.1848
C	6.5953	-1.2379	-0.2185
C	7.4143	-2.4643	0.1232
C	8.8485	-2.3274	0.6330
O	9.7192	-1.9459	-0.2033
O	9.0479	-2.7237	1.8252
C	5.2440	-1.4229	-0.5758
H	2.4968	-0.9977	-0.1958
H	2.4146	0.4072	-1.2278
H	4.2799	1.8095	-1.0262
H	7.6485	2.6480	-1.1625
H	7.4249	2.6329	0.5830
H	8.1375	0.2404	0.0676
H	7.4538	-3.1068	-0.7663
H	6.8533	-3.0223	0.8867
H	4.8330	-2.4315	-0.6053
X	2.3875	-3.5735	-1.8744
X	1.9464	-0.4206	-4.1121
X	5.8923	4.7865	-2.3853
X	5.1429	4.4952	1.4193
X	10.3381	-1.6747	-0.7978
X	9.1890	-3.0041	2.6687
0	1	S
1	2	S
1	3	S
3	4	S
3	18	S
3	19	S
4	5	D
4	17	S
5	6	S
5	20	S
6	7	S
6	11	D
7	8	S
7	21	S
7	22	S
8	9	S
8	10	S
11	12	S
11	23	S
12	13	S
12	17	D
13	14	S
13	24	S
13	25	S
14	15	S
14	16	S
17	26	S
27	0	S
28	2	S
29	9	S
30	10	S
31	15	S
32	16	S
