28
18	19	20	21	22	23	24	25	26	27
O	1.6789	-1.0972	-0.0481
C	2.2663	0.0317	0.1253
O	2.0465	0.7751	1.1541
C	3.1523	0.5819	-1.0091
N	2.8214	1.8160	-1.5575
C	3.5699	2.3123	-2.6181
C	3.2109	3.7042	-3.1645
O	4.1281	4.6032	-3.2232
O	1.9766	3.9690	-3.4343
C	4.6468	1.5775	-3.1264
C	5.4625	2.0686	-4.3391
O	6.7480	2.0676	-4.2576
O	4.8410	2.3436	-5.4286
N	4.9778	0.3415	-2.5777
C	4.2264	-0.1549	-1.5191
C	4.6466	-1.5017	-0.8969
O	4.8379	-2.5092	-1.6760
O	4.9076	-1.5431	0.3594
X	2.1296	2.2889	-1.2292
X	5.6704	-0.1317	-2.9039
X	1.2673	-1.8883	-0.1696
X	1.8929	1.2945	1.8729
X	4.7702	5.2325	-3.2643
X	1.1161	4.1536	-3.6224
X	7.6462	2.0669	-4.2007
X	4.4054	2.5363	-6.1922
X	4.9716	-3.2133	-2.2205
X	5.0906	-1.5721	1.2401
0	1	S
1	2	S
1	3	S
3	4	S
3	14	S
4	5	S
5	6	S
5	9	D
6	7	S
6	8	S
9	10	S
9	13	S
10	11	S
10	12	S
13	14	S
14	15	S
15	16	S
15	17	S
4	18	S
13	19	S
20	0	S
21	2	S
22	7	S
23	8	S
24	11	S
25	12	S
26	16	S
27	17	S
