19
15	16	17	18
O	2.4016	-1.1399	-0.1779
C	1.9826	0.0460	-0.3051
O	0.9584	0.5893	0.2041
C	2.8432	0.9699	-1.2121
C	2.5003	2.2588	-1.4173
C	3.3037	3.1173	-2.2593
C	4.4774	2.5349	-2.9113
N	5.3563	3.0322	-3.7170
N	6.2612	1.9350	-3.9860
N	5.9157	0.8818	-3.3628
C	4.7912	1.1455	-2.6508
C	4.0336	0.4003	-1.8428
H	1.6124	2.6768	-0.9497
H	3.0841	4.1660	-2.3770
H	4.2791	-0.6381	-1.6426
X	5.3424	3.8851	-4.0041
X	6.9935	1.9092	-4.5085
X	6.3731	0.1085	-3.4149
X	1.3183	-0.6671	0.3950
0	1	S
1	2	S
1	3	S
3	4	D
3	11	S
4	5	S
4	12	S
5	6	S
5	13	S
6	7	S
6	10	S
7	8	S
8	9	S
9	10	S
10	11	D
11	14	S
7	15	S
8	16	S
9	17	S
18	0	S
