30
24	25	26	27	28	29
O	2.5625	-0.1898	1.3697
C	2.2100	0.0488	0.1712
O	1.4103	0.9551	-0.2161
C	2.8293	-0.8478	-0.9391
C	2.5132	-2.3171	-0.6472
C	3.2388	-3.3358	-1.5433
C	2.5144	-3.8936	-2.8029
O	3.1804	-4.7364	-3.4856
O	1.2815	-3.6271	-2.9225
C	4.7413	-3.0202	-1.6909
C	5.1547	-1.5471	-1.8414
C	5.4229	-1.1042	-3.3028
O	4.5288	-0.4500	-3.8983
O	6.6025	-1.3612	-3.7191
C	4.3372	-0.5903	-0.9665
H	2.3996	-0.5765	-1.9108
H	1.4276	-2.4656	-0.6921
H	2.7911	-2.5425	0.3922
H	3.2191	-4.2613	-0.9398
H	5.1924	-3.6183	-2.4908
H	5.2168	-3.3759	-0.7636
H	6.1699	-1.4955	-1.4119
H	4.5255	0.4471	-1.2699
H	4.7327	-0.6706	0.0567
X	2.8119	-0.3586	2.2178
X	0.8432	1.5978	-0.4907
X	3.6513	-5.3324	-3.9683
X	0.4057	-3.4378	-3.0075
X	3.8890	0.0181	-4.3244
X	7.4338	-1.5423	-4.0125
0	1	S
1	2	S
1	3	S
3	4	S
3	14	S
3	15	S
4	5	S
4	16	S
4	17	S
5	6	S
5	9	S
5	18	S
6	7	S
6	8	S
9	10	S
9	19	S
9	20	S
10	11	S
10	14	S
10	21	S
11	12	S
11	13	S
14	22	S
14	23	S
24	0	S
25	2	S
26	7	S
27	8	S
28	12	S
29	13	S
