26
22	23	24	25
O	1.2126	-0.4869	-0.5512
C	2.2416	0.0972	-0.0833
O	2.6342	1.2651	-0.3976
C	3.0650	-0.6641	0.9358
C	4.2104	-0.0926	1.5087
C	4.9725	-0.7973	2.4417
C	4.6383	-2.1020	2.8251
C	5.4795	-2.8483	3.7676
C	6.2309	-2.1876	4.7463
C	7.0685	-2.8858	5.6193
C	7.2009	-4.2792	5.5279
C	8.1343	-5.0364	6.4503
O	8.2067	-6.2980	6.2975
O	8.7798	-4.3580	7.3114
C	6.4460	-4.9462	4.5513
C	5.5955	-4.2408	3.6952
C	3.4946	-2.6698	2.2525
C	2.7128	-1.9629	1.3325
H	4.5147	0.9113	1.2175
H	7.6336	-2.3394	6.3717
H	6.5317	-6.0262	4.4514
H	1.8253	-2.4305	0.9134
X	0.4847	-0.9001	-0.8822
X	2.9121	2.0917	-0.6201
X	8.2579	-7.1900	6.1895
X	9.2365	-3.8781	7.9206
0	1	S
1	2	S
1	3	S
3	4	D
3	17	S
4	5	S
4	18	S
5	6	D
6	7	S
6	16	S
7	8	D
7	15	S
8	9	S
9	10	D
9	19	S
10	11	S
10	14	S
11	12	S
11	13	S
14	15	D
14	20	S
16	17	D
17	21	S
22	0	S
23	2	S
24	12	S
25	13	S
