28
24	25	26	27
O	1.2859	0.4358	0.7453
C	2.2331	-0.1107	0.0944
O	2.7000	-1.2752	0.3082
C	2.8562	0.6918	-1.0312
C	3.9030	0.1664	-1.7998
C	4.4756	0.9138	-2.8331
C	4.0406	2.2087	-3.1437
C	4.6947	2.9849	-4.2152
C	4.7361	4.3849	-4.1605
C	5.3958	5.1452	-5.1291
C	6.0472	4.5267	-6.2042
C	6.7959	5.3428	-7.2395
O	7.3620	4.7070	-8.1854
O	6.8082	6.6063	-7.0879
C	5.9913	3.1270	-6.2843
C	5.3276	2.3699	-5.3077
C	2.9889	2.7313	-2.3722
C	2.4064	1.9851	-1.3366
H	4.2809	-0.8305	-1.5863
H	5.4147	6.2286	-5.0392
H	6.4825	2.6241	-7.1159
H	5.3164	1.2882	-5.4148
H	2.6030	3.7286	-2.5675
H	1.5928	2.4138	-0.7540
X	0.6160	0.8223	1.2056
X	3.0302	-2.0987	0.4594
X	7.7624	4.2573	-8.8544
X	6.8169	7.4998	-6.9807
0	1	S
1	2	S
1	3	S
3	4	D
3	17	S
4	5	S
4	18	S
5	6	D
6	7	S
6	16	S
7	8	D
7	15	S
8	9	S
9	10	D
9	19	S
10	11	S
10	14	S
11	12	S
11	13	S
14	15	D
14	20	S
15	21	S
16	17	D
16	22	S
17	23	S
24	0	S
25	2	S
26	12	S
27	13	S
