14
10	11	12	13
O	2.8676	-1.1308	0.4205
C	2.3864	0.0001	0.0720
O	1.2670	0.4621	0.4805
C	3.1641	0.8165	-0.8510
C	2.8760	2.0469	-1.3659
N	3.8386	2.5062	-2.1981
N	4.7980	1.5459	-2.2378
C	4.3719	0.5498	-1.4276
H	1.9858	2.6247	-1.1530
H	4.9539	-0.3506	-1.2791
X	3.8404	3.2920	-2.6368
X	5.5650	1.5657	-2.7083
X	3.2066	-1.9275	0.6660
X	0.4787	0.7874	0.7682
0	1	S
1	2	S
1	3	S
3	4	D
3	7	S
4	5	S
4	8	S
5	6	S
6	7	S
7	9	S
5	10	S
6	11	S
12	0	S
13	2	S
