21
15	16	17	18	19	20
C	1.0012	0.0050	-0.0273
C	2.4665	-0.0347	-0.0307
N	3.2544	1.0385	0.1084
C	4.5814	0.6039	0.0267
C	5.8017	1.5453	-0.0214
O	6.9111	1.1651	-0.5420
O	5.6511	2.7651	0.3827
C	4.5351	-0.8083	-0.0771
C	5.6913	-1.8256	-0.0243
O	5.4681	-3.0268	-0.4399
O	6.8158	-1.5203	0.5124
N	3.1833	-1.1567	-0.1665
H	0.6352	1.0363	-0.0254
H	0.6168	-0.5020	0.8631
H	0.6100	-0.4977	-0.9175
X	2.9542	1.8780	0.2313
X	2.8300	-1.9749	-0.2918
X	7.6893	0.8984	-0.9072
X	5.5463	3.6136	0.6638
X	5.3124	-3.8645	-0.7297
X	7.6047	-1.3061	0.8889
0	1	S
0	12	S
0	13	S
0	14	S
1	2	S
1	11	S
2	3	S
3	4	S
3	7	D
4	5	S
4	6	S
7	8	S
7	11	S
8	9	S
8	10	S
2	15	S
11	16	S
17	5	S
18	6	S
19	9	S
20	10	S
