31
27	28	29	30
O	1.0943	0.4666	0.6002
C	2.1466	-0.0294	0.0904
O	2.5699	-1.2170	0.2684
C	2.9791	0.8737	-0.8020
C	4.1600	0.3827	-1.4102
C	4.9875	1.1957	-2.1989
C	4.6432	2.5261	-2.3858
C	3.4493	2.9901	-1.8042
C	2.6111	2.2121	-1.0229
S	3.2471	4.7037	-2.1672
O	3.3619	5.4589	-0.9363
O	2.1496	4.8542	-3.1037
C	4.7658	4.8267	-3.0538
C	5.3042	5.9774	-3.6063
C	6.5496	5.8763	-4.2486
C	7.2089	7.0934	-4.8705
O	8.3363	6.9179	-5.4334
O	6.5868	8.1984	-4.7842
C	7.1881	4.6120	-4.3009
C	6.6188	3.4643	-3.7292
C	5.3907	3.5673	-3.0913
H	4.4391	-0.6577	-1.2398
H	5.8913	0.7769	-2.6271
H	1.7115	2.6196	-0.5727
H	4.7912	6.9332	-3.5411
H	8.1569	4.5384	-4.7946
H	7.1528	2.5223	-3.7832
X	0.3487	0.8181	0.9614
X	2.8691	-2.0564	0.3942
X	9.1338	6.7938	-5.8316
X	6.1463	8.9808	-4.7231
0	1	S
1	2	S
1	3	S
3	4	D
3	8	S
4	5	S
4	21	S
5	6	D
5	22	S
6	7	S
6	20	S
7	8	D
7	9	S
8	23	S
9	10	D
9	11	D
9	12	S
12	13	S
12	20	D
13	14	D
13	24	S
14	15	S
14	18	S
15	16	S
15	17	S
18	19	D
18	25	S
19	20	S
19	26	S
27	0	S
28	2	S
29	16	S
30	17	S
