35
29	30	31	32	33	34
O	5.2383	1.2974	0.9851
C	4.4380	1.4000	-0.0039
O	3.5367	2.2916	-0.1185
C	4.5598	0.3630	-1.1077
C	3.7154	0.3878	-2.2309
C	3.8095	-0.5883	-3.2357
C	4.7872	-1.5807	-3.1622
O	4.9516	-2.6013	-4.0744
C	4.7178	-2.4059	-5.4208
C	4.8727	-1.1895	-6.0902
C	4.6034	-1.0764	-7.4676
C	4.7025	0.2762	-8.1573
O	4.4481	0.3368	-9.4035
O	5.0362	1.2778	-7.4420
C	4.2424	-2.2440	-8.1739
C	4.1473	-3.5009	-7.5397
C	3.8109	-4.7658	-8.3149
O	3.7834	-5.8638	-7.6604
O	3.5810	-4.6734	-9.5639
C	4.3823	-3.5543	-6.1521
C	5.6235	-1.6278	-2.0440
C	5.5133	-0.6656	-1.0309
H	2.9757	1.1807	-2.3247
H	3.1205	-0.5449	-4.0745
H	5.1966	-0.2995	-5.5555
H	4.0404	-2.1735	-9.2435
H	4.3075	-4.5127	-5.6427
H	6.3661	-2.4146	-1.9597
H	6.1754	-0.7103	-0.1692
X	5.8026	1.2251	1.6825
X	2.8995	2.9220	-0.1995
X	4.2683	0.3796	-10.2843
X	5.2717	1.9847	-6.9372
X	3.7640	-6.6367	-7.1997
X	3.4185	-4.6081	-10.4467
0	1	S
1	2	S
1	3	S
3	4	D
3	21	S
4	5	S
4	22	S
5	6	D
5	23	S
6	7	S
6	20	S
7	8	S
8	9	D
8	19	S
9	10	S
9	24	S
10	11	S
10	14	D
11	12	S
11	13	S
14	15	S
14	25	S
15	16	S
15	19	D
16	17	S
16	18	S
19	26	S
20	21	D
20	27	S
21	28	S
29	0	S
30	2	S
31	12	S
32	13	S
33	17	S
34	18	S
