20
15	16	17	18	19
O	1.2432	-0.4499	-0.6707
C	2.2291	0.0752	-0.0771
O	2.7279	1.2279	-0.2268
C	2.9242	-0.8151	0.9810
C	3.9837	-0.3649	1.6808
C	4.5951	-1.2677	2.6670
N	5.5946	-1.0940	3.4726
N	5.7255	-2.3466	4.1810
N	4.8562	-3.1902	3.8011
C	4.0795	-2.6138	2.8509
C	3.0319	-3.0664	2.1573
C	2.4051	-2.1545	1.2248
H	4.4027	0.6234	1.5441
H	2.6372	-4.0655	2.2832
H	1.4740	-2.4429	0.7456
X	6.0619	-0.3266	3.5249
X	6.3125	-2.5866	4.8197
X	4.8018	-4.0238	4.1359
X	0.5417	-0.8235	-1.0930
X	3.0828	2.0481	-0.3333
0	1	S
1	2	S
1	3	S
3	4	D
3	11	S
4	5	S
4	12	S
5	6	S
5	9	S
6	7	S
7	8	S
8	9	S
9	10	D
10	11	S
10	13	S
11	14	S
6	15	S
7	16	S
8	17	S
18	0	S
19	2	S
