38
32	33	34	35	36	37
O	1.5257	-0.3500	3.3145
C	1.4570	-1.1261	2.3041
O	0.3643	-1.5308	1.7875
C	2.7656	-1.6006	1.6865
C	2.7846	-2.4728	0.5759
C	3.9913	-2.9096	-0.0133
C	4.0076	-3.8870	-1.1787
O	5.1463	-4.3032	-1.5791
O	2.8936	-4.2508	-1.6794
C	5.2026	-2.4397	0.5330
C	5.2240	-1.6397	1.6798
C	6.4971	-1.2445	2.3770
O	6.5529	-0.1187	2.8735
N	7.5167	-2.1770	2.5482
C	7.5622	-3.5606	2.1206
C	8.1884	-4.2766	3.2991
C	9.2105	-3.2807	3.8304
C	8.6656	-1.8921	3.4416
C	9.9086	-1.1363	2.8736
O	10.1494	-1.2601	1.6368
O	10.6356	-0.5772	3.7584
C	4.0049	-1.1966	2.2251
H	1.8376	-2.8223	0.1621
H	6.1341	-2.7401	0.0590
H	8.2087	-3.6151	1.2366
H	6.5878	-3.9919	1.8939
H	8.6314	-5.2362	3.0214
H	7.4235	-4.4624	4.0635
H	10.1930	-3.4931	3.3905
H	9.3160	-3.3768	4.9164
H	8.2917	-1.3585	4.3230
H	4.0114	-0.5401	3.0942
X	1.5742	0.1974	4.0272
X	-0.4072	-1.8166	1.4227
X	5.9490	-4.5966	-1.8613
X	2.1069	-4.5077	-2.0330
X	10.3206	-1.3481	0.7576
X	11.1490	-0.1823	4.3833
0	1	S
1	2	S
1	3	S
3	4	D
3	21	S
4	5	S
4	22	S
5	6	S
5	9	D
6	7	S
6	8	S
9	10	S
9	23	S
10	11	S
10	21	D
11	12	D
11	13	S
13	14	S
13	17	S
14	15	S
14	24	S
14	25	S
15	16	S
15	26	S
15	27	S
16	17	S
16	28	S
16	29	S
17	18	S
17	30	S
18	19	S
18	20	S
21	31	S
32	0	S
33	2	S
34	7	S
35	8	S
36	19	S
37	20	S
