24
20	21	22	23
O	2.7229	-1.0272	-0.7925
C	2.2701	-0.1939	0.0512
O	1.1700	-0.3508	0.6958
C	3.0496	1.0453	0.4217
C	2.7459	1.7368	1.6097
O	1.7006	1.3395	2.4309
C	3.4562	2.8808	2.0475
O	3.0417	3.4155	3.2408
C	4.5033	3.4197	1.2989
C	5.3077	4.6454	1.6779
O	6.2225	4.9748	0.8376
O	5.0754	5.2854	2.7493
C	4.7855	2.7411	0.0956
O	5.7848	3.1689	-0.7672
C	4.0832	1.5920	-0.3347
O	4.4630	1.0783	-1.5485
H	1.2479	0.6126	1.9168
H	2.3090	2.8290	3.5099
H	6.1705	3.9731	-0.3180
H	5.2064	1.6550	-1.8114
X	3.0439	-1.6180	-1.3907
X	0.3993	-0.4607	1.1474
X	6.8632	5.2055	0.2491
X	4.9107	5.7391	3.5089
0	1	S
1	2	S
1	3	S
3	4	D
3	14	S
4	5	S
4	6	S
5	16	S
6	7	S
6	8	D
7	17	S
8	9	S
8	12	S
9	10	S
9	11	S
12	13	S
12	14	D
13	18	S
14	15	S
15	19	S
20	0	S
21	2	S
22	10	S
23	11	S
