24
20	21	22	23
O	2.6946	-1.0781	0.7369
C	2.2955	-0.0371	0.1208
O	1.3089	0.6878	0.4797
C	3.0478	0.3729	-1.1332
C	2.6828	1.5175	-1.8554
C	3.3557	1.8802	-3.0344
C	4.4033	1.1048	-3.5522
N	5.0336	1.4127	-4.7800
C	4.9009	2.5140	-5.5608
N	5.3985	2.3664	-6.8274
C	5.8231	1.1368	-6.7963
N	5.6971	0.4259	-5.6626
C	4.7795	-0.0261	-2.8139
C	4.1209	-0.3838	-1.6248
H	1.8501	2.1237	-1.5061
H	3.0149	2.7575	-3.5703
H	4.4556	3.4326	-5.2107
H	6.2809	0.6039	-7.6412
H	5.5998	-0.6395	-3.1725
H	4.4357	-1.2733	-1.0845
X	5.4373	2.9422	-7.5180
X	5.9661	-0.4237	-5.5369
X	2.9766	-1.8136	1.1722
X	0.6129	1.1992	0.7329
0	1	S
1	2	S
1	3	S
3	4	D
3	13	S
4	5	S
4	14	S
5	6	D
5	15	S
6	7	S
6	12	S
7	8	S
7	11	S
8	9	S
8	16	S
9	10	S
10	11	S
10	17	S
12	13	D
12	18	S
13	19	S
9	20	S
11	21	S
22	0	S
23	2	S
