19
15	16	17	18
C	2.0671	-0.0756	-0.0093
C	0.5960	0.0376	-0.0067
N	-0.1042	1.1446	-0.0112
C	-1.4771	0.7718	-0.0110
C	-2.5609	1.8388	-0.0213
O	-3.7923	1.5288	-0.0275
O	-2.1519	3.0563	-0.0252
C	-1.5432	-0.6199	-0.0019
C	-2.5804	-1.6624	0.0062
O	-2.0759	-2.8435	0.0143
O	-3.8141	-1.4136	0.0069
N	-0.2322	-1.0400	-0.0015
H	2.5260	0.9186	0.0022
H	2.4167	-0.5970	-0.9057
H	2.4198	-0.6192	0.8724
X	-0.4377	-0.1638	-0.0052
X	0.2683	1.9639	-0.0138
X	-3.4160	2.6807	-0.0294
X	-3.4268	-2.5131	0.0128
0	1	S
0	12	S
0	13	S
0	14	S
1	2	S
1	11	S
2	3	S
3	4	S
3	7	D
4	5	S
4	6	S
7	8	S
7	11	S
8	9	S
8	10	S
11	15	S
2	16	S
17	5	S
18	9	S
