32
28	29	30	31
C	3.3460	1.3697	0.0221
C	2.6449	-0.0098	0.0250
C	1.1205	0.2220	0.0150
C	3.0467	-0.6997	-1.2990
C	2.9795	-0.8523	1.2654
C	3.3505	-0.2529	2.4830
C	3.5730	-0.9924	3.6635
C	3.9558	-0.2662	4.9458
O	4.1543	-0.9551	5.9961
O	4.0583	1.0060	4.8883
C	3.4090	-2.3877	3.6114
C	3.0337	-3.0396	2.4191
C	2.8242	-4.5478	2.3551
O	2.5289	-5.0474	1.2171
O	2.9466	-5.2236	3.4272
C	2.8292	-2.2516	1.2656
H	3.1339	1.9199	-0.9025
H	4.4342	1.2615	0.1016
H	3.0073	2.0101	0.8437
H	0.8152	0.8219	-0.8497
H	0.7918	0.7498	0.9182
H	0.5704	-0.7255	-0.0286
H	2.7972	-0.0669	-2.1600
H	2.5256	-1.6491	-1.4567
H	4.1245	-0.8957	-1.3331
H	3.4583	0.8255	2.5632
H	3.5607	-2.9787	4.5150
H	2.5157	-2.7766	0.3656
X	4.2948	-1.4427	6.7394
X	4.1305	1.9022	4.8478
X	2.3209	-5.3994	0.4153
X	3.0331	-5.7013	4.1850
0	1	S
0	16	S
0	17	S
0	18	S
1	2	S
1	3	S
1	4	S
2	19	S
2	20	S
2	21	S
3	22	S
3	23	S
3	24	S
4	5	D
4	15	S
5	6	S
5	25	S
6	7	S
6	10	D
7	8	S
7	9	S
10	11	S
10	26	S
11	12	S
11	15	D
12	13	S
12	14	S
15	27	S
28	8	S
29	9	S
30	13	S
31	14	S
