24
18	19	20	21	22	23
O	2.7227	0.8499	0.8416
C	2.2270	-0.0026	0.0371
O	1.1424	0.1444	-0.6133
C	2.9931	-1.2963	-0.1620
C	2.5151	-2.2971	-1.0232
C	3.2081	-3.5054	-1.1929
C	4.4117	-3.7615	-0.5125
C	5.0870	-5.0971	-0.6497
O	5.8297	-5.4748	0.3069
O	4.8257	-5.7768	-1.6926
C	4.9030	-2.7412	0.3117
N	6.2116	-2.8446	0.9403
O	7.2051	-2.7277	0.2012
O	6.2473	-2.8567	2.1835
C	4.2085	-1.5302	0.5005
H	1.5836	-2.1327	-1.5625
H	2.8016	-4.2656	-1.8581
H	4.6118	-0.7581	1.1544
X	3.0732	1.4528	1.4105
X	0.3757	0.2483	-1.0731
X	6.3566	-5.7428	0.9856
X	4.6408	-6.2577	-2.4305
X	7.9240	-2.6431	-0.3336
X	6.2731	-2.8655	3.0831
0	1	S
1	2	S
1	3	S
3	4	D
3	14	S
4	5	S
4	15	S
5	6	D
5	16	S
6	7	S
6	10	S
7	8	S
7	9	S
10	11	S
10	14	D
11	12	S
11	13	S
14	17	S
18	0	S
19	2	S
20	8	S
21	9	S
22	12	S
23	13	S
