23
17	18	19	20	21	22
O	0.8211	-0.0059	-0.1832
C	2.1637	0.0014	-0.1586
C	2.6010	1.5173	0.1258
C	2.3918	2.5316	1.3004
O	2.4331	2.1366	2.5081
O	2.3319	3.7687	0.9479
C	2.6762	-0.9445	0.9963
C	2.7109	-2.4997	1.1934
O	2.2035	-3.2915	0.3431
O	3.2741	-2.8856	2.2881
C	2.9973	-0.3621	-1.5094
O	4.2744	-0.4476	-1.3933
O	2.3764	-0.4284	-2.6279
H	2.2774	2.0864	-0.7643
H	3.7011	1.5311	0.0565
H	2.2019	-0.5913	1.9271
H	3.7409	-0.6880	1.1263
X	2.4623	1.8570	3.3631
X	2.2900	4.6333	0.7015
X	1.8433	-3.8536	-0.2605
X	3.6670	-3.1548	3.0518
X	5.1687	-0.5075	-1.3120
X	1.9402	-0.4750	-3.4137
0	1	S
1	2	S
1	6	S
1	10	S
2	3	S
2	13	S
2	14	S
3	4	S
3	5	S
6	7	S
6	15	S
6	16	S
7	8	S
7	9	S
10	11	S
10	12	S
17	4	S
18	5	S
19	8	S
20	9	S
21	11	S
22	12	S
