18
15	16	17
O	2.3644	-0.1096	-1.3082
C	2.5352	-0.1000	-0.0385
O	2.4328	-1.1183	0.7160
C	3.1364	1.1494	0.5343
C	4.2351	1.6834	-0.1458
N	4.9729	2.7592	0.2448
C	4.5745	3.3348	1.3943
C	3.4941	2.9041	2.1452
C	2.7388	1.7953	1.7199
C	1.5305	1.4266	2.5462
O	1.6680	1.5321	3.8143
O	0.4285	1.2285	1.9480
H	4.5701	1.2128	-1.0686
H	5.1594	4.1891	1.7129
H	3.2138	3.4200	3.0591
X	5.6757	3.0686	-0.2246
X	2.0543	-1.0994	-0.4967
X	0.5700	1.1335	3.2031
0	1	S
1	2	S
1	3	S
3	4	D
3	8	S
4	5	S
4	12	S
5	6	S
6	7	S
6	13	S
7	8	D
7	14	S
8	9	S
9	10	S
9	11	S
5	15	S
16	0	S
17	10	S
