42
32	33	34	35	36	37	38	39	40	41
O	2.5310	-1.4498	0.5704
C	2.0676	-0.5714	-0.2312
O	0.8783	-0.1142	-0.1756
C	2.9841	-0.0398	-1.3247
C	2.5352	0.9412	-2.2380
C	3.3686	1.4646	-3.2460
N	2.9581	2.4499	-4.1917
N	2.1138	3.2451	-3.7215
C	1.7251	4.2944	-4.5974
C	1.7368	4.2258	-6.0029
C	1.2855	5.2995	-6.8076
C	1.2952	5.2020	-8.3284
O	0.8922	6.2082	-9.0010
O	1.7035	4.1125	-8.8517
C	0.8092	6.4605	-6.1592
C	0.7639	6.5666	-4.7552
C	0.2152	7.8072	-4.0653
O	0.2074	7.8242	-2.7898
O	-0.2129	8.7644	-4.7928
C	1.2311	5.4698	-4.0024
C	4.6766	0.9557	-3.3425
C	5.1749	-0.0274	-2.4592
C	6.6010	-0.5448	-2.5868
O	6.9983	-1.4365	-1.7651
O	7.3285	-0.0584	-3.5158
C	4.3086	-0.5076	-1.4561
H	1.5116	1.3013	-2.1499
H	2.0883	3.3204	-6.4938
H	0.4546	7.2968	-6.7631
H	1.1997	5.5311	-2.9152
H	5.3327	1.3374	-4.1231
H	4.6731	-1.2639	-0.7597
X	3.2196	2.5645	-5.0452
X	1.8298	3.0867	-2.8823
X	2.8578	-2.0692	1.1357
X	0.0390	0.2084	-0.1364
X	0.6079	6.9181	-9.4755
X	1.9915	3.3439	-9.2209
X	0.2019	7.8362	-1.8899
X	-0.5148	9.4394	-5.3058
X	7.2785	-2.0654	-1.1855
X	7.8415	0.2846	-4.1709
0	1	S
1	2	S
1	3	S
3	4	D
3	25	S
4	5	S
4	26	S
5	6	S
5	20	D
6	7	S
7	8	S
8	9	D
8	19	S
9	10	S
9	27	S
10	11	S
10	14	D
11	12	S
11	13	S
14	15	S
14	28	S
15	16	S
15	19	D
16	17	S
16	18	S
19	29	S
20	21	S
20	30	S
21	22	S
21	25	D
22	23	S
22	24	S
25	31	S
6	32	S
7	33	S
34	0	S
35	2	S
36	12	S
37	13	S
38	17	S
39	18	S
40	23	S
41	24	S
