28
24	25	26	27
O	1.9148	2.0137	0.3499
C	2.3027	0.8282	0.1255
O	2.0101	0.0732	-0.8518
C	3.1727	0.1862	1.2276
O	4.5616	0.4543	0.9626
C	5.4097	0.3868	2.0334
C	5.1867	-0.3299	3.2093
C	6.1345	-0.3043	4.2451
C	7.3142	0.4284	4.1055
O	8.2790	0.5721	5.0660
C	8.4447	-0.5426	5.9611
C	9.6128	-0.2795	6.9370
O	10.7630	-0.1603	6.4217
O	9.2962	-0.2862	8.1665
C	7.5378	1.1356	2.9240
C	6.5995	1.1018	1.8891
H	3.0090	-0.8979	1.2345
H	2.8608	0.6081	2.1910
H	4.2814	-0.9115	3.3453
H	5.9125	-0.8422	5.1599
H	8.6754	-1.4479	5.3868
H	7.5354	-0.6982	6.5516
H	8.4507	1.7135	2.8110
H	6.7820	1.6525	0.9710
X	1.6393	2.8556	0.5093
X	1.8026	-0.4622	-1.5448
X	11.5807	-0.0756	6.0554
X	9.0718	-0.2909	9.0381
0	1	S
1	2	S
1	3	S
3	4	S
3	16	S
3	17	S
4	5	S
5	6	D
5	15	S
6	7	S
6	18	S
7	8	D
7	19	S
8	9	S
8	14	S
9	10	S
10	11	S
10	20	S
10	21	S
11	12	S
11	13	S
14	15	D
14	22	S
15	23	S
24	0	S
25	2	S
26	12	S
27	13	S
