19
15	16	17	18
O	1.0837	0.3250	-0.4515
C	2.1830	-0.0524	0.0464
O	2.7386	0.3124	1.1230
C	2.9667	-1.1021	-0.7817
C	4.1511	-1.5964	-0.3670
C	4.9072	-2.5452	-1.1684
C	4.4483	-2.9261	-2.3631
N	4.9515	-3.7540	-3.3124
N	4.1400	-3.7913	-4.2915
N	2.9785	-2.9632	-4.0469
C	3.1824	-2.4461	-2.8797
C	2.4008	-1.5314	-2.0496
H	4.5799	-1.2701	0.5784
H	5.8501	-2.9104	-0.7823
H	1.4233	-1.2014	-2.3745
X	5.7226	-4.2177	-3.2949
X	4.3447	-4.2973	-5.0071
X	2.2457	-2.7963	-4.5420
X	1.5762	0.7604	0.6876
0	1	S
1	2	S
1	3	S
3	4	D
3	11	S
4	5	S
4	12	S
5	6	D
5	13	S
6	7	S
6	10	S
7	8	S
8	9	S
9	10	S
10	11	S
11	14	S
7	15	S
8	16	S
9	17	S
18	0	S
