38
28	29	30	31	32	33	34	35	36	37
O	2.8027	-1.2046	0.0586
C	2.1994	-0.0788	-0.0404
O	1.0246	0.1229	0.4315
C	2.9097	1.1121	-0.7427
C	2.4454	2.4113	-0.4775
C	3.0244	3.5413	-1.0822
C	2.5320	4.9248	-0.7929
C	2.0248	5.2760	0.4709
C	1.5471	6.5703	0.7406
C	0.9987	6.8709	2.1645
O	0.2276	7.8765	2.3452
O	1.3370	6.0753	3.1122
N	1.5690	7.5402	-0.2269
C	2.0645	7.2359	-1.4707
C	2.1028	8.3106	-2.5936
O	2.2229	7.9027	-3.8042
O	2.0306	9.5505	-2.2843
C	2.5413	5.9433	-1.7611
C	4.0871	3.2911	-1.9677
C	4.5394	1.9829	-2.2216
C	5.7238	1.7891	-3.2110
O	5.9227	0.6413	-3.7418
O	6.4558	2.8103	-3.4697
N	3.9530	0.9040	-1.6081
H	1.6091	2.5230	0.2091
H	1.9967	4.5454	1.2755
H	2.9119	5.7484	-2.7643
H	4.5892	4.1131	-2.4719
X	1.2617	8.3669	-0.0476
X	4.2491	0.0699	-1.7713
X	3.2265	-1.9955	0.1282
X	0.1999	0.2645	0.7628
X	-0.3146	8.5835	2.4723
X	1.5743	5.5171	3.7771
X	2.3071	7.6166	-4.6533
X	1.9798	10.4223	-2.0668
X	6.0625	-0.1657	-4.1150
X	6.9694	3.5268	-3.6512
0	1	S
1	2	S
1	3	S
3	4	D
3	23	S
4	5	S
4	24	S
5	6	S
5	18	D
6	7	D
6	17	S
7	8	S
7	25	S
8	9	S
8	12	S
9	10	S
9	11	S
12	13	S
13	14	S
13	17	D
14	15	S
14	16	S
17	26	S
18	19	S
18	27	S
19	20	S
19	23	S
20	21	S
20	22	S
12	28	S
23	29	S
30	0	S
31	2	S
32	10	S
33	11	S
34	15	S
35	16	S
36	21	S
37	22	S
