20
15	16	17	18	19
O	1.3643	-1.0200	-0.3749
C	2.2854	-0.1897	-0.1262
O	2.6832	0.7890	-0.8224
C	3.0295	-0.3946	1.2223
C	4.0315	0.4431	1.5651
C	4.6860	0.2296	2.8596
N	5.6346	0.8385	3.4909
N	5.7765	0.1042	4.7390
N	4.9539	-0.8636	4.8063
C	4.2282	-0.8674	3.6674
C	3.1763	-1.7367	3.2759
C	2.5987	-1.5009	2.0838
H	4.3603	1.2641	0.9399
H	2.8658	-2.5475	3.9198
H	1.7869	-2.1298	1.7244
X	6.0658	1.5564	3.1612
X	6.3393	0.2404	5.4280
X	4.8975	-1.4244	5.5080
X	0.7089	-1.6108	-0.5519
X	2.9662	1.4852	-1.3176
0	1	S
1	2	S
1	3	S
3	4	D
3	11	S
4	5	S
4	12	S
5	6	S
5	9	S
6	7	S
7	8	S
8	9	S
9	10	S
10	11	D
10	13	S
11	14	S
6	15	S
7	16	S
8	17	S
18	0	S
19	2	S
