46
38	39	40	41	42	43	44	45
O	0.4761	-3.8607	6.7706
C	0.4751	-4.1501	5.5281
O	-0.5598	-4.5108	4.8775
C	1.7892	-4.0543	4.7672
C	1.8415	-4.3881	3.3984
C	3.0286	-4.2801	2.6693
O	3.1849	-4.5481	1.3343
C	2.0498	-4.9822	0.5782
C	1.9163	-6.5039	0.6034
O	0.7594	-6.9272	-0.1239
C	0.8895	-7.1941	-1.4610
C	2.0394	-7.6836	-2.0814
C	2.0586	-7.9745	-3.4614
C	3.3221	-8.5221	-4.1105
O	3.3034	-8.7569	-5.3640
O	4.3341	-8.7229	-3.3592
C	0.8752	-7.7638	-4.2023
C	-0.3089	-7.2897	-3.5998
C	-1.5889	-7.0892	-4.3993
O	-2.6185	-6.6664	-3.7747
O	-1.5708	-7.3564	-5.6460
C	-0.2749	-7.0159	-2.2191
C	4.1925	-3.8535	3.3234
C	4.1969	-3.5192	4.6916
C	5.4745	-3.0511	5.3731
O	5.4270	-2.7600	6.6139
O	6.5315	-2.9699	4.6614
C	2.9786	-3.6261	5.3945
H	0.9195	-4.7289	2.9374
H	2.2222	-4.6632	-0.4569
H	1.1213	-4.4751	0.8652
H	1.7756	-6.8380	1.6377
H	2.8473	-6.9822	0.2867
H	2.9459	-7.8868	-1.5208
H	0.8731	-7.9863	-5.2700
H	-1.1785	-6.6556	-1.7306
H	5.1213	-3.7752	2.7606
H	2.9536	-3.3665	6.4534
X	0.4768	-3.6565	7.6471
X	-1.2906	-4.7655	4.4181
X	3.2902	-8.9226	-6.2485
X	5.0477	-8.8645	-2.8294
X	-3.3445	-6.3683	-3.3343
X	-1.5580	-7.5450	-6.5259
X	5.3935	-2.5546	7.4895
X	7.2765	-2.9127	4.1598
0	1	S
1	2	S
1	3	S
3	4	D
3	27	S
4	5	S
4	28	S
5	6	S
5	22	D
6	7	S
7	8	S
7	29	S
7	30	S
8	9	S
8	31	S
8	32	S
9	10	S
10	11	D
10	21	S
11	12	S
11	33	S
12	13	S
12	16	D
13	14	S
13	15	S
16	17	S
16	34	S
17	18	S
17	21	D
18	19	S
18	20	S
21	35	S
22	23	S
22	36	S
23	24	S
23	27	D
24	25	S
24	26	S
27	37	S
38	0	S
39	2	S
40	14	S
41	15	S
42	19	S
43	20	S
44	25	S
45	26	S
