20
16	17	18	19
N	1.1197	-0.0813	-0.0446
C	2.5480	-0.0604	-0.0420
C	3.2580	-1.2598	-0.0389
C	4.6642	-1.2649	-0.0356
C	5.4181	-2.5842	-0.0322
O	6.6898	-2.5537	-0.0309
O	4.7171	-3.6508	-0.0309
C	5.3322	-0.0195	-0.0363
C	4.6276	1.2055	-0.0400
C	5.3429	2.5461	-0.0416
O	4.6112	3.5926	-0.0426
O	6.6144	2.5522	-0.0421
C	3.2222	1.1593	-0.0422
H	2.7285	-2.2102	-0.0396
H	6.4230	-0.0036	-0.0345
H	2.6654	2.0938	-0.0443
X	7.5895	-2.5321	-0.0300
X	4.2228	-4.4029	-0.0300
X	4.0955	4.3302	-0.0433
X	7.5144	2.5565	-0.0425
0	1	S
1	2	D
1	12	S
2	3	S
2	13	S
3	4	S
3	7	D
4	5	S
4	6	S
7	8	S
7	14	S
8	9	S
8	12	D
9	10	S
9	11	S
12	15	S
16	5	S
17	6	S
18	10	S
19	11	S
