14
10	11	12	13
O	1.4796	0.0480	-0.8250
N	2.3244	0.0251	0.0831
O	2.5589	0.9563	0.8698
C	3.1417	-1.1995	0.2647
N	2.8658	-2.1673	-0.5723
C	3.7464	-3.1480	-0.1990
C	4.5326	-2.6291	0.9095
N	4.1526	-1.4259	1.1938
H	3.9359	-4.0412	-0.7715
H	5.3221	-3.2231	1.3865
X	2.2440	-2.1604	-1.2230
X	4.4905	-0.9028	1.8436
X	0.8667	0.0646	-1.4838
X	2.7289	1.6314	1.4402
0	1	S
1	2	S
1	3	S
3	4	S
3	7	S
4	5	S
5	6	S
5	8	S
6	7	S
6	9	S
4	10	S
7	11	S
12	0	S
13	2	S
