38
31	32	33	34	35	36	37
O	2.9193	-0.6613	-1.0751
C	2.9786	-1.0649	0.1311
O	2.5845	-2.2014	0.5461
C	3.5699	-0.1154	1.1599
C	3.6795	-0.4793	2.5165
C	4.2494	0.3853	3.4676
C	4.7198	1.6404	3.0701
C	5.4134	2.6044	3.9787
O	6.2324	3.3512	3.4525
N	5.0897	2.5630	5.3266
C	5.5734	3.4475	6.3290
C	6.2291	4.6508	6.0470
C	6.6959	5.4984	7.0720
C	7.3737	6.8164	6.7280
O	8.0880	7.3724	7.6240
O	7.1854	7.2920	5.5595
C	6.5018	5.0957	8.4094
C	5.8252	3.9019	8.7316
C	5.5977	3.4744	10.1742
O	4.9788	2.3741	10.3635
O	6.0277	4.2275	11.1064
C	5.3563	3.0990	7.6696
C	4.6093	2.0109	1.7199
C	4.0413	1.1476	0.7792
H	3.3299	-1.4650	2.8238
H	4.3499	0.0378	4.4895
H	6.3792	4.9838	5.0239
H	6.8746	5.7329	9.2124
H	4.8382	2.1771	7.9239
H	4.9837	2.9782	1.3908
H	3.9782	1.4520	-0.2629
X	5.6370	3.2125	5.0290
X	2.8774	-0.3760	-1.9277
X	2.3058	-3.0052	0.8396
X	8.5927	7.7653	8.2571
X	7.0525	7.6276	4.7350
X	4.5425	1.5983	10.4970
X	6.3317	4.7598	11.7654
0	1	S
1	2	S
1	3	S
3	4	D
3	23	S
4	5	S
4	24	S
5	6	D
5	25	S
6	7	S
6	22	S
7	8	D
7	9	S
9	10	S
10	11	D
10	21	S
11	12	S
11	26	S
12	13	S
12	16	D
13	14	S
13	15	S
16	17	S
16	27	S
17	18	S
17	21	D
18	19	S
18	20	S
21	28	S
22	23	D
22	29	S
23	30	S
9	31	S
32	0	S
33	2	S
34	14	S
35	15	S
36	19	S
37	20	S
