18
11	12	13	14	15	16	17
O	3.1533	0.8593	-0.5896
C	2.4300	0.0082	0.0443
O	1.2121	-0.2316	-0.3202
C	3.0410	-0.8349	1.1482
N	2.6172	-2.1029	1.4825
N	3.5689	-2.5959	2.3186
N	4.5432	-1.6843	2.5788
C	4.1553	-0.5351	1.9244
C	4.8031	0.8221	2.1250
O	6.0294	0.8754	2.5312
O	4.0990	1.8931	2.0070
X	1.8699	-2.5239	1.2099
X	3.5555	-3.4285	2.6600
X	5.2827	-1.8133	3.0753
X	3.6602	1.4557	-1.0338
X	0.3648	-0.3984	-0.5738
X	6.8830	0.9125	2.8140
X	3.6067	2.6420	1.9245
0	1	S
1	2	S
1	3	S
3	4	S
3	7	S
4	5	S
5	6	S
6	7	S
7	8	S
8	9	S
8	10	S
4	11	S
5	12	S
6	13	S
14	0	S
15	2	S
16	9	S
17	10	S
