20
16	17	18	19
O	0.9109	0.2598	0.0726
C	2.1924	0.1522	-0.0182
C	3.0231	1.3426	-0.0067
C	4.4599	1.4915	-0.1452
O	4.9989	2.6603	-0.0517
C	5.1397	0.2579	-0.3542
C	6.6710	0.0866	-0.5841
O	7.2511	-0.9349	-0.0389
O	7.3365	0.8647	-1.3686
C	4.3646	-0.9570	-0.3359
C	2.9397	-1.0518	-0.1591
C	2.3507	-2.4975	-0.1608
O	2.8899	-3.3623	-0.9589
O	1.4310	-2.8635	0.6638
H	2.4759	2.2828	0.1280
H	4.9121	-1.8900	-0.4709
X	7.6542	-1.6448	0.3400
X	7.8008	1.4076	-1.9160
X	3.2648	-3.9636	-1.5138
X	0.7885	-3.1192	1.2399
0	1	S
1	2	D
1	10	S
2	3	S
2	14	S
3	4	S
3	5	D
5	6	S
5	9	S
6	7	S
6	8	S
9	10	D
9	15	S
10	11	S
11	12	S
11	13	S
16	7	S
17	8	S
18	12	S
19	13	S
