39
35	36	37	38
O	1.2590	0.0186	0.2453
C	2.3204	0.3049	-0.3965
O	2.7771	1.4787	-0.5828
C	3.1054	-0.8485	-0.9869
C	4.2936	-0.6331	-1.6949
C	5.0063	-1.7026	-2.2554
C	4.5490	-3.0279	-2.1452
C	5.2587	-4.1588	-2.7909
C	5.2558	-5.4446	-2.2310
C	5.8756	-6.5118	-2.8723
C	6.5276	-6.3166	-4.0866
C	6.5937	-5.0485	-4.6830
C	7.3165	-4.8257	-5.9598
C	6.9111	-3.8440	-6.8816
C	7.6132	-3.6222	-8.0742
C	8.7419	-4.3846	-8.4002
C	9.5029	-4.1500	-9.6904
O	10.5168	-4.8892	-9.9083
O	9.0741	-3.2368	-10.4637
C	9.1477	-5.3706	-7.4936
C	8.4529	-5.5824	-6.2954
C	5.9455	-3.9905	-4.0125
C	3.3609	-3.2336	-1.4212
C	2.6575	-2.1682	-0.8479
H	4.6629	0.3842	-1.8173
H	5.9271	-1.4720	-2.7849
H	4.7690	-5.6362	-1.2788
H	6.9749	-7.1823	-4.5669
H	6.0334	-3.2300	-6.6957
H	7.2804	-2.8457	-8.7611
H	10.0230	-5.9757	-7.7244
H	8.8348	-6.3439	-5.6217
H	5.9698	-2.9992	-4.4602
H	2.9417	-4.2300	-1.3096
H	1.7372	-2.3605	-0.2989
X	0.5086	-0.1838	0.6991
X	3.0999	2.3084	-0.7145
X	11.2333	-5.4116	-10.0623
X	8.7705	-2.5902	-11.0112
0	1	S
1	2	S
1	3	S
3	4	D
3	23	S
4	5	S
4	24	S
5	6	D
5	25	S
6	7	S
6	22	S
7	8	D
7	21	S
8	9	S
8	26	S
9	10	D
10	11	S
10	27	S
11	12	S
11	21	D
12	13	D
12	20	S
13	14	S
13	28	S
14	15	D
14	29	S
15	16	S
15	19	S
16	17	S
16	18	S
19	20	D
19	30	S
20	31	S
21	32	S
22	23	D
22	33	S
23	34	S
35	0	S
36	2	S
37	17	S
38	18	S
