23
19	20	21	22
O	0.9327	0.0399	-0.0623
P	2.6627	0.0399	-0.0623
O	2.7219	-0.5741	1.3657
O	2.7284	-0.8322	-1.3503
C	4.4927	0.0399	-0.0623
C	5.1813	1.2772	-0.0462
C	6.5876	1.3637	0.0972
C	7.3018	2.7123	0.1435
O	8.5760	2.7313	0.2725
O	6.6027	3.7818	0.0460
C	7.3074	0.1513	0.2284
C	6.6801	-1.1190	0.2207
C	7.5036	-2.3955	0.4084
O	6.9290	-3.5367	0.3817
O	8.7723	-2.2748	0.5800
C	5.2719	-1.1429	0.0693
H	4.5943	2.1898	-0.1061
H	8.3882	0.1968	0.3630
H	4.7273	-2.0855	0.0951
X	9.4713	2.7447	0.3631
X	6.1117	4.5329	-0.0225
X	6.5243	-4.3404	0.3629
X	9.6602	-2.1903	0.7001
0	1	S
1	2	S
1	3	D
1	4	S
4	5	D
4	15	S
5	6	S
5	16	S
6	7	S
6	10	D
7	8	S
7	9	S
10	11	S
10	17	S
11	12	S
11	15	D
12	13	S
12	14	S
15	18	S
19	8	S
20	9	S
21	13	S
22	14	S
