38
32	33	34	35	36	37
O	2.8769	0.7276	-1.0616
C	2.4326	0.0606	-0.0708
O	1.4043	0.3695	0.6150
C	3.1967	-1.1897	0.3322
C	2.7769	-1.9828	1.4132
C	3.4898	-3.1303	1.7930
C	4.6507	-3.5116	1.1061
C	5.4496	-4.7259	1.5380
O	4.9600	-5.8939	0.8815
C	5.5782	-7.0815	1.1960
C	6.6744	-7.2359	2.0502
C	7.2321	-8.5062	2.3116
C	8.4247	-8.6378	3.2489
O	8.9058	-9.7965	3.4610
O	8.8742	-7.5633	3.7725
C	6.6513	-9.6294	1.6856
C	5.5455	-9.5068	0.8180
C	4.9135	-10.7202	0.1520
O	3.9219	-10.5162	-0.6253
O	5.4015	-11.8700	0.4042
C	5.0304	-8.2157	0.5858
C	5.0612	-2.7386	0.0121
C	4.3464	-1.5927	-0.3649
H	1.8819	-1.6971	1.9620
H	3.1326	-3.7221	2.6315
H	5.3659	-4.8333	2.6272
H	6.5041	-4.5592	1.2829
H	7.1358	-6.3853	2.5425
H	7.0670	-10.6191	1.8790
H	4.1791	-8.1030	-0.0832
H	5.9445	-3.0213	-0.5543
H	4.6852	-1.0006	-1.2132
X	3.1907	1.1987	-1.7613
X	0.6779	0.5877	1.0995
X	9.2461	-10.6161	3.6110
X	9.1910	-6.8060	4.1415
X	3.2227	-10.3724	-1.1734
X	5.7462	-12.6821	0.5823
0	1	S
1	2	S
1	3	S
3	4	D
3	22	S
4	5	S
4	23	S
5	6	D
5	24	S
6	7	S
6	21	S
7	8	S
7	25	S
7	26	S
8	9	S
9	10	D
9	20	S
10	11	S
10	27	S
11	12	S
11	15	D
12	13	S
12	14	S
15	16	S
15	28	S
16	17	S
16	20	D
17	18	S
17	19	S
20	29	S
21	22	D
21	30	S
22	31	S
32	0	S
33	2	S
34	13	S
35	14	S
36	18	S
37	19	S
