27
23	24	25	26
C	0.9690	0.0482	0.3022
C	2.4675	-0.0575	0.0683
N	2.8305	-1.2776	-0.7225
C	2.6079	-2.5041	0.0247
C	3.0780	-3.7274	-0.7284
C	3.9706	-4.6299	-0.1446
C	4.3202	-5.7710	-0.8461
N	3.8460	-6.0815	-2.0719
C	2.9948	-5.1881	-2.6259
C	2.5834	-4.0221	-2.0047
C	3.0795	1.2063	-0.6555
O	2.2933	2.1609	-0.9084
O	4.3330	1.1169	-0.8614
H	0.6133	-0.7456	0.9669
H	0.4124	-0.0183	-0.6388
H	0.7099	1.0001	0.7777
H	2.9777	-0.0958	1.0408
H	1.5373	-2.6476	0.2122
H	3.1050	-2.4571	1.0011
H	4.3859	-4.4469	0.8418
H	5.0097	-6.4945	-0.4216
H	2.6329	-5.4449	-3.6159
H	1.8968	-3.3411	-2.4990
X	1.9563	-1.3834	-0.5364
X	4.0834	-6.8396	-2.4949
X	1.7327	2.8415	-1.0887
X	5.2189	1.0537	-1.0069
0	1	S
0	13	S
0	14	S
0	15	S
1	2	S
1	10	S
1	16	S
2	3	S
3	4	S
3	17	S
3	18	S
4	5	D
4	9	S
5	6	S
5	19	S
6	7	S
6	20	S
7	8	S
8	9	D
8	21	S
9	22	S
10	11	S
10	12	S
2	23	S
7	24	S
25	11	S
26	12	S
