26
22	23	24	25
O	2.5390	0.6775	0.9679
C	2.0924	0.2020	-0.1217
O	0.9743	0.5041	-0.6399
C	2.9536	-0.8103	-0.8266
C	2.7559	-0.9451	-2.2300
C	3.4656	-1.8566	-3.0412
C	3.1367	-1.7772	-4.5041
O	2.8371	-0.7121	-5.0339
O	3.0238	-2.9368	-5.1799
C	4.4282	-2.6731	-2.4338
C	5.2182	-3.7207	-3.1605
O	6.3913	-3.9762	-2.7570
O	4.6212	-4.3063	-4.1203
C	4.6512	-2.5170	-1.0425
C	3.9363	-1.6118	-0.2134
C	4.3273	-1.6992	1.2486
O	5.2118	-2.4658	1.6257
O	3.6631	-0.9836	2.1735
H	2.0046	-0.3025	-2.7017
H	3.5677	-3.6705	-4.7634
H	5.4182	-3.1552	-0.5943
H	3.1451	-0.2201	1.7866
X	2.8555	1.0145	1.7401
X	0.1812	0.7184	-1.0075
X	7.2249	-4.1578	-2.4703
X	4.1991	-4.7203	-4.7989
0	1	S
1	2	S
1	3	S
3	4	D
3	14	S
4	5	S
4	18	S
5	6	S
5	9	D
6	7	D
6	8	S
8	19	S
9	10	S
9	13	S
10	11	S
10	12	S
13	14	D
13	20	S
14	15	S
15	16	D
15	17	S
17	21	S
22	0	S
23	2	S
24	11	S
25	12	S
