12
8	9	10	11
O	1.5933	-1.4152	-0.3283
C	2.0256	-0.3831	0.2728
O	1.5963	0.0855	1.3726
C	3.1678	0.3638	-0.3881
C	4.3439	1.1309	-1.0667
C	5.4895	1.8757	-1.7251
O	5.1768	2.7980	-2.5404
O	6.6640	1.5135	-1.4052
X	1.2870	-2.1465	-0.7542
X	1.2921	0.4175	2.1519
X	4.9552	3.4516	-3.1181
X	7.4963	1.2568	-1.1785
0	1	S
1	2	S
1	3	S
3	4	S
4	5	S
5	6	S
5	7	S
8	0	S
9	2	S
10	6	S
11	7	S
