13
10	11	12
O	2.8502	0.5681	0.9573
C	2.3501	0.1281	-0.1176
O	1.3030	0.4988	-0.7219
C	3.1088	-0.9939	-0.7722
C	2.8484	-1.6666	-1.8899
N	3.8159	-2.6085	-2.1456
N	4.6881	-2.5441	-1.2238
C	4.3239	-1.5690	-0.3221
H	2.0021	-1.5147	-2.5441
H	4.9630	-1.2088	0.4665
X	3.8712	-3.1921	-2.8285
X	5.4127	-3.0778	-1.2120
X	1.7449	1.0231	0.4046
0	1	S
1	2	S
1	3	S
3	4	D
3	7	S
4	5	S
4	8	S
5	6	S
6	7	S
7	9	S
5	10	S
6	11	S
12	0	S
