38
30	31	32	33	34	35	36	37
O	3.1892	-1.2346	0.6408
C	2.5255	-0.1481	0.5900
O	1.3718	-0.0254	1.1622
C	3.1901	1.1403	0.0602
C	2.7630	2.2975	0.7725
C	3.3577	3.5315	0.6239
C	4.3877	3.6502	-0.2837
C	4.7984	2.5827	-1.1381
C	5.8226	3.0642	-2.1783
O	5.6900	2.7322	-3.4009
O	6.6487	3.9922	-1.7975
C	4.1915	1.2634	-0.9911
C	4.5443	0.0723	-1.9047
C	5.9155	-0.3106	-2.2230
C	7.2278	0.2760	-1.6702
O	8.2706	0.2023	-2.4266
O	7.3029	0.5893	-0.4341
C	6.1627	-1.4130	-3.0961
C	5.1639	-2.2344	-3.5723
C	3.8603	-1.9242	-3.2488
C	3.5034	-0.7618	-2.5030
C	1.9752	-0.5312	-2.4916
O	1.2268	-1.5758	-2.6104
O	1.5055	0.6515	-2.5837
H	1.9460	2.1974	1.4834
H	3.0306	4.3797	1.2075
H	4.8838	4.6143	-0.3827
H	7.1923	-1.6389	-3.3694
H	5.3950	-3.0963	-4.1801
H	3.0685	-2.5802	-3.6025
X	3.6580	-2.0020	0.6767
X	0.5692	0.0600	1.5603
X	5.5963	2.4976	-4.2647
X	7.2208	4.6349	-1.5338
X	8.9979	0.1509	-2.9542
X	7.3558	0.8100	0.4368
X	0.7049	-2.3043	-2.6933
X	1.1742	1.4858	-2.6487
0	1	S
1	2	S
1	3	S
3	4	D
3	11	S
4	5	S
4	24	S
5	6	D
5	25	S
6	7	S
6	26	S
7	8	S
7	11	D
8	9	S
8	10	S
11	12	S
12	13	D
12	20	S
13	14	S
13	17	S
14	15	S
14	16	S
17	18	D
17	27	S
18	19	S
18	28	S
19	20	D
19	29	S
20	21	S
21	22	S
21	23	S
30	0	S
31	2	S
32	9	S
33	10	S
34	15	S
35	16	S
36	22	S
37	23	S
