32
28	29	30	31
C	2.5688	-1.4360	0.1162
C	1.2445	-0.7134	0.0379
C	0.0098	-1.4358	-0.0342
C	-0.0188	-2.9487	-0.0978
C	-1.2361	-0.7408	-0.0187
C	-2.5604	-1.5119	-0.0998
O	-3.4181	-1.1253	-0.9614
O	-2.7284	-2.4966	0.6928
C	-1.2310	0.6810	0.0506
C	-2.5351	1.4416	0.1589
C	-0.0003	1.4016	-0.0030
C	-0.0065	2.9160	-0.0699
C	1.2510	0.7110	0.0070
C	2.5708	1.4983	-0.0113
O	2.6635	2.5424	0.7120
O	3.5182	1.0572	-0.7422
H	2.4847	-2.4762	0.4331
H	3.2107	-0.9735	0.8741
H	3.0669	-1.4229	-0.8585
H	0.9356	-3.3947	-0.3802
H	-0.7192	-3.2899	-0.8672
H	-0.3040	-3.3594	0.8754
H	-3.3685	0.8295	0.5099
H	-2.7983	1.8792	-0.8076
H	-2.4457	2.2363	0.9093
H	-0.9876	3.3360	-0.3062
H	0.6524	3.2661	-0.8718
H	0.3020	3.3412	0.8899
X	-4.0232	-0.8526	-1.5692
X	-2.8470	-3.1916	1.2522
X	2.7290	3.2803	1.2232
X	4.1868	0.7459	-1.2580
0	1	S
0	16	S
0	17	S
0	18	S
1	2	D
1	12	S
2	3	S
2	4	S
3	19	S
3	20	S
3	21	S
4	5	S
4	8	D
5	6	S
5	7	S
8	9	S
8	10	S
9	22	S
9	23	S
9	24	S
10	11	S
10	12	D
11	25	S
11	26	S
11	27	S
12	13	S
13	14	S
13	15	S
28	6	S
29	7	S
30	14	S
31	15	S
