33
29	30	31	32
C	1.0387	0.4068	0.0702
C	2.5660	0.2405	0.0426
C	3.1180	0.6761	1.4080
C	3.0006	-1.2096	-0.3108
N	2.4102	-1.7244	-1.5922
C	2.9317	-1.0400	-2.7733
C	2.3596	-1.6494	-4.0334
C	1.5277	-0.9161	-4.8818
C	1.0422	-1.5306	-6.0293
N	1.3248	-2.8022	-6.3846
C	2.1333	-3.4911	-5.5490
C	2.6684	-2.9680	-4.3834
C	4.5706	-1.4260	-0.3201
O	5.2568	-0.4311	-0.7065
O	4.9641	-2.5651	0.0640
H	0.7531	1.3497	0.5455
H	0.5586	-0.4061	0.6249
H	0.6257	0.4212	-0.9441
H	2.9660	0.9414	-0.6999
H	2.7462	0.0327	2.2110
H	2.8153	1.7056	1.6322
H	4.2117	0.6559	1.4319
H	2.6137	-1.8697	0.4778
H	4.0212	-1.1127	-2.8517
H	2.6744	0.0247	-2.7436
H	1.2677	0.1121	-4.6590
H	0.3928	-0.9950	-6.7119
H	2.3508	-4.5127	-5.8471
H	3.3147	-3.5673	-3.7477
X	3.3068	-1.7970	-1.6215
X	0.9930	-3.1699	-7.1361
X	5.7435	0.2746	-0.9806
X	5.2441	-3.3756	0.3373
0	1	S
0	15	S
0	16	S
0	17	S
1	2	S
1	3	S
1	18	S
2	19	S
2	20	S
2	21	S
3	4	S
3	12	S
3	22	S
4	5	S
5	6	S
5	23	S
5	24	S
6	7	D
6	11	S
7	8	S
7	25	S
8	9	S
8	26	S
9	10	S
10	11	D
10	27	S
11	28	S
12	13	S
12	14	S
4	29	S
9	30	S
31	13	S
32	14	S
