30
27	28	29
O	1.6961	-0.9298	0.3557
C	2.0818	0.0148	-0.4003
O	1.7395	0.2272	-1.6034
C	2.9353	1.0979	0.2617
C	4.4424	0.9368	0.2702
C	5.2487	2.0973	0.2829
C	6.6421	2.0212	0.4225
C	7.5482	3.2333	0.4769
C	6.9738	4.6485	0.4119
O	6.2442	5.0201	1.3790
O	7.3792	5.3592	-0.5615
C	7.2334	0.7440	0.5482
C	6.4666	-0.4287	0.5579
C	7.0508	-1.8125	0.7566
C	8.5592	-2.0095	0.9143
O	9.0925	-1.5448	1.9656
O	9.1162	-2.7218	0.0212
C	5.0671	-0.3105	0.4148
H	2.6101	1.1958	1.3066
H	2.6786	2.0482	-0.2267
H	4.7731	3.0723	0.2163
H	8.2820	3.1313	-0.3348
H	8.1145	3.1832	1.4179
H	8.3134	0.6787	0.6732
H	6.7207	-2.4341	-0.0868
H	6.5931	-2.2404	1.6591
H	4.4529	-1.2088	0.4469
X	1.4122	-0.8349	-0.9196
X	6.5229	5.7594	0.3609
X	9.7428	-2.1641	1.0380
0	1	S
1	2	S
1	3	S
3	4	S
3	18	S
3	19	S
4	5	D
4	17	S
5	6	S
5	20	S
6	7	S
6	11	D
7	8	S
7	21	S
7	22	S
8	9	S
8	10	S
11	12	S
11	23	S
12	13	S
12	17	D
13	14	S
13	24	S
13	25	S
14	15	S
14	16	S
17	26	S
27	0	S
28	9	S
29	15	S
