28
20	21	22	23	24	25	26	27
O	0.8991	-0.3194	-0.1330
C	2.1523	-0.1372	0.0979
O	2.7811	-0.8338	0.9709
C	2.8927	0.8678	-0.7851
C	4.4403	1.0256	-0.6554
C	5.3619	0.2250	-1.5765
O	6.6274	0.2869	-1.3531
O	4.8770	-0.5482	-2.4776
C	4.2629	2.5647	-0.9027
C	4.5268	3.1846	-2.2851
O	3.6321	3.1457	-3.2025
O	5.6111	3.8606	-2.4375
C	2.7502	2.3986	-0.4794
C	2.3782	2.9020	0.9250
O	3.2330	2.8812	1.8785
O	1.2268	3.4607	1.0696
H	2.6067	0.6710	-1.8311
H	4.7667	0.8509	0.3823
H	4.8413	3.1427	-0.1664
H	2.0579	2.8680	-1.1933
X	0.0229	-0.4468	-0.2944
X	3.2226	-1.3229	1.5839
X	7.5127	0.3302	-1.1968
X	4.5367	-1.0908	-3.1099
X	3.0040	3.1184	-3.8465
X	6.3695	4.3334	-2.5441
X	3.8337	2.8666	2.5485
X	0.4222	3.8511	1.1706
0	1	S
1	2	S
1	3	S
3	4	S
3	12	S
3	16	S
4	5	S
4	8	S
4	17	S
5	6	S
5	7	S
8	9	S
8	12	S
8	18	S
9	10	S
9	11	S
12	13	S
12	19	S
13	14	S
13	15	S
20	0	S
21	2	S
22	6	S
23	7	S
24	10	S
25	11	S
26	14	S
27	15	S
