20
16	17	18	19
O	0.9835	0.0645	-0.0722
C	2.2961	0.0419	0.0198
C	3.0734	-1.2464	0.0846
O	2.4732	-2.4141	0.1661
C	4.5893	-1.1636	0.0684
C	5.4185	-2.5443	0.0751
O	6.0259	-2.9675	1.1622
O	5.5096	-3.2883	-1.0021
C	5.3839	0.1330	0.0404
O	6.6952	0.1149	-0.0341
C	4.6058	1.4282	0.0925
O	5.2043	2.5950	0.1767
C	3.0869	1.3403	0.0509
C	2.2583	2.7251	0.0431
O	2.1837	3.4660	-1.0384
O	1.6371	3.1495	1.1182
X	6.4415	-3.2571	1.9061
X	5.5721	-3.7985	-1.7409
X	2.1326	3.9738	-1.7797
X	1.2110	3.4406	1.8556
0	1	S
1	2	D
1	12	S
2	3	S
2	4	S
4	5	S
4	8	D
5	6	S
5	7	S
8	9	S
8	10	S
10	11	S
10	12	D
12	13	S
13	14	S
13	15	S
16	6	S
17	7	S
18	14	S
19	15	S
