26
22	23	24	25
C	1.1115	-0.4433	1.2627
O	2.5348	-0.4133	1.2766
C	3.1141	-1.2920	0.4152
O	2.5075	-2.0538	-0.3236
C	4.5911	-1.2391	0.5544
C	5.2493	-0.0673	0.9456
C	6.6478	-0.0352	1.0947
C	7.3336	1.2505	1.5307
O	8.5970	1.2470	1.6616
O	6.5823	2.2612	1.7393
C	7.3692	-1.2229	0.8399
C	6.7267	-2.4169	0.4424
C	7.4972	-3.7042	0.1965
O	6.8184	-4.7265	-0.1528
O	8.7583	-3.6926	0.3581
C	5.3281	-2.3978	0.2917
H	0.7480	0.3478	1.9243
H	0.7461	-1.4040	1.6396
H	0.7277	-0.2525	0.2552
H	4.6864	0.8439	1.1398
H	8.4543	-1.2194	0.9585
H	4.8191	-3.3103	-0.0158
X	9.4922	1.2445	1.7544
X	6.0526	2.9738	1.8864
X	6.3396	-5.4476	-0.3992
X	9.6510	-3.6844	0.4725
0	1	S
0	16	S
0	17	S
0	18	S
1	2	S
2	3	D
2	4	S
4	5	D
4	15	S
5	6	S
5	19	S
6	7	S
6	10	D
7	8	S
7	9	S
10	11	S
10	20	S
11	12	S
11	15	D
12	13	S
12	14	S
15	21	S
22	8	S
23	9	S
24	13	S
25	14	S
