20
17	18	19
O	1.1926	0.6235	0.0776
C	2.4167	0.3057	0.1244
O	3.0926	-0.1761	1.0719
C	3.1626	0.5629	-1.1834
C	4.4695	0.2960	-1.3390
C	5.2035	0.5449	-2.5832
C	4.8491	1.5760	-3.4539
C	5.6022	1.7681	-4.5983
N	6.6762	1.0177	-4.9303
C	7.0054	0.0337	-4.0667
C	6.3178	-0.2341	-2.8937
H	2.5600	0.9692	-1.9873
H	5.0265	-0.1373	-0.5106
H	4.0047	2.2220	-3.2419
H	5.3521	2.5597	-5.2975
H	7.8691	-0.5597	-4.3508
H	6.6359	-1.0410	-2.2429
X	7.1457	1.1649	-5.6839
X	0.3221	0.8495	0.0443
X	3.5755	-0.5203	1.7489
0	1	S
1	2	S
1	3	S
3	4	D
3	11	S
4	5	S
4	12	S
5	6	D
5	10	S
6	7	S
6	13	S
7	8	S
7	14	S
8	9	S
9	10	D
9	15	S
10	16	S
8	17	S
18	0	S
19	2	S
