19
15	16	17	18
O	2.7371	-0.9822	-0.6849
C	2.3318	0.0325	-0.0324
O	1.3285	0.0410	0.7540
C	3.0950	1.3335	-0.1977
C	2.6841	2.4898	0.5030
C	3.3505	3.7124	0.3832
C	4.4588	3.7705	-0.4722
C	4.8867	2.6294	-1.1817
C	4.2134	1.4014	-1.0496
N	5.9694	2.9828	-1.9221
N	6.1784	4.3010	-1.6647
N	5.2784	4.8060	-0.7827
H	1.8173	2.4223	1.1589
H	3.0458	4.6004	0.9150
H	4.5657	0.5412	-1.6041
X	6.4489	2.4534	-2.4697
X	6.8392	4.7856	-2.0369
X	5.2344	5.6488	-0.4700
X	1.7282	-0.9964	0.0983
0	1	S
1	2	S
1	3	S
3	4	S
3	8	D
4	5	D
4	12	S
5	6	S
5	13	S
6	7	S
6	11	S
7	8	S
7	9	S
8	14	S
9	10	S
10	11	S
9	15	S
10	16	S
11	17	S
18	0	S
