46
38	39	40	41	42	43	44	45
O	1.8818	2.8846	0.1666
C	1.6117	1.8158	0.8125
O	0.4541	1.2838	0.8570
C	2.7497	1.1416	1.5644
C	2.5504	-0.0200	2.3329
C	3.6106	-0.6505	3.0161
C	3.3797	-1.9004	3.8504
O	4.3844	-2.4117	4.4491
O	2.1964	-2.3727	3.9142
C	4.8996	-0.0812	2.9101
C	5.1527	1.0880	2.1697
N	6.4457	1.6773	2.1138
C	7.6312	1.1747	2.6221
N	8.6096	2.1499	2.6923
C	9.8572	2.0792	3.3684
C	10.4977	0.8537	3.6280
C	11.7506	0.7809	4.2794
C	12.4375	-0.5615	4.4910
O	13.5515	-0.5762	5.1091
O	11.8695	-1.6006	4.0175
C	12.3523	1.9861	4.7018
C	11.7486	3.2363	4.4754
C	12.3951	4.5435	4.9103
O	11.7750	5.6274	4.6444
O	13.5244	4.4949	5.5033
C	10.5062	3.2497	3.8113
C	8.0019	3.2942	2.1724
C	6.7279	3.0153	1.8256
C	4.0545	1.6721	1.5037
H	1.5493	-0.4455	2.4045
H	5.7045	-0.5669	3.4595
H	7.7596	0.1624	2.9777
H	10.0422	-0.0802	3.3042
H	13.3152	1.9468	5.2110
H	10.0354	4.2192	3.6702
H	8.5206	4.2363	2.1073
H	5.9843	3.6916	1.4380
H	4.1935	2.5707	0.9073
X	2.0721	3.6375	-0.2884
X	-0.3632	0.9082	0.8884
X	5.0928	-2.7722	4.8712
X	1.3616	-2.7059	3.9592
X	14.3384	-0.5866	5.5457
X	11.4687	-2.3339	3.6834
X	11.3379	6.3915	4.4570
X	14.3206	4.4606	5.9214
0	1	S
1	2	S
1	3	S
3	4	D
3	28	S
4	5	S
4	29	S
5	6	S
5	9	D
6	7	S
6	8	S
9	10	S
9	30	S
10	11	S
10	28	D
11	12	S
11	27	S
12	13	S
12	31	S
13	14	S
13	26	S
14	15	D
14	25	S
15	16	S
15	32	S
16	17	S
16	20	D
17	18	S
17	19	S
20	21	S
20	33	S
21	22	S
21	25	D
22	23	S
22	24	S
25	34	S
26	27	D
26	35	S
27	36	S
28	37	S
38	0	S
39	2	S
40	7	S
41	8	S
42	18	S
43	19	S
44	23	S
45	24	S
