28
19	20	21	22	23	24	25	26	27
O	1.4871	1.0766	0.4764
C	2.0374	0.0089	0.0335
O	1.6940	-0.5492	-1.0702
C	2.9857	-0.7450	0.9342
C	2.7022	-2.0960	1.2356
C	3.4890	-2.8770	2.1154
C	3.0096	-4.2646	2.4800
O	2.9074	-4.5718	3.7201
O	2.5537	-5.0066	1.5366
C	4.6405	-2.2790	2.6444
C	5.6914	-3.1041	3.4519
O	6.2651	-2.5618	4.4678
O	6.0380	-4.2609	3.0112
N	4.9326	-0.9440	2.3744
C	4.1131	-0.1760	1.5495
C	4.5318	1.2957	1.2778
O	4.8142	2.0557	2.2822
O	4.6843	1.6808	0.0626
H	1.8187	-2.5514	0.7891
X	5.6652	-0.5703	2.7401
X	1.1002	1.8272	0.7878
X	1.4532	-0.9405	-1.8441
X	2.8356	-4.7875	4.5909
X	2.2341	-5.5267	0.8753
X	6.6664	-2.1824	5.1785
X	6.2807	-5.0708	2.7027
X	5.0111	2.5856	2.9825
X	4.7912	1.9508	-0.7893
0	1	S
1	2	S
1	3	S
3	4	D
3	14	S
4	5	S
4	18	S
5	6	S
5	9	D
6	7	S
6	8	S
9	10	S
9	13	S
10	11	S
10	12	S
13	14	S
14	15	S
15	16	S
15	17	S
13	19	S
20	0	S
21	2	S
22	7	S
23	8	S
24	11	S
25	12	S
26	16	S
27	17	S
