30
26	27	28	29
O	1.4399	-1.2192	0.2139
C	1.8519	-0.0490	-0.0575
O	1.5020	1.0003	0.5779
C	2.7950	0.1730	-1.2352
C	2.4904	1.3080	-2.0316
C	3.2682	1.6818	-3.1218
C	4.4089	0.9547	-3.4104
C	4.7403	-0.1594	-2.6343
C	3.9280	-0.6280	-1.5727
C	4.3207	-1.8941	-0.8740
C	4.3220	-1.8942	0.5433
C	4.5422	-3.0465	1.3039
C	4.8235	-4.2424	0.6704
C	4.9314	-4.2623	-0.7154
C	4.7046	-3.1106	-1.5157
C	4.9225	-3.3245	-3.0120
O	5.8732	-4.1202	-3.3296
O	4.1728	-2.7493	-3.8588
H	1.6074	1.8931	-1.7810
H	2.9736	2.5243	-3.7366
H	5.0284	1.2131	-4.2638
H	5.6347	-0.7164	-2.9067
H	4.0809	-0.9774	1.0791
H	4.4457	-3.0001	2.3828
H	4.9546	-5.1554	1.2383
H	5.1803	-5.1982	-1.2154
X	1.1479	-2.0485	0.4062
X	1.2551	1.7406	1.0262
X	6.5418	-4.6798	-3.5530
X	3.6410	-2.3413	-4.4594
0	1	S
1	2	S
1	3	S
3	4	D
3	8	S
4	5	S
4	18	S
5	6	D
5	19	S
6	7	S
6	20	S
7	8	D
7	21	S
8	9	S
9	10	D
9	14	S
10	11	S
10	22	S
11	12	D
11	23	S
12	13	S
12	24	S
13	14	D
13	25	S
14	15	S
15	16	S
15	17	S
26	0	S
27	2	S
28	16	S
29	17	S
