42
34	35	36	37	38	39	40	41
O	2.8918	1.2308	-0.1510
C	2.1985	0.1762	0.0198
O	0.9592	0.1456	0.2946
C	2.9459	-1.1964	-0.1176
C	4.0992	-1.2916	0.9207
C	4.8834	-2.6256	0.7816
C	6.0468	-2.6561	1.8384
O	5.7806	-3.1477	2.9772
O	7.1740	-2.1865	1.4816
C	5.4619	-2.6971	-0.6525
C	4.3532	-2.6188	-1.7279
C	4.9857	-2.6846	-3.1629
O	6.0687	-3.3277	-3.2992
O	4.3576	-2.0889	-4.1000
C	3.5693	-1.2931	-1.5348
C	3.3745	-3.7986	-1.4965
C	2.7431	-3.7547	-0.0781
C	1.7416	-4.9335	0.1923
O	1.5661	-5.7726	-0.7508
O	1.1794	-4.9749	1.3295
C	1.9970	-2.4064	0.0826
C	3.8846	-3.7988	0.9709
H	3.6890	-1.2008	1.9350
H	4.7874	-0.4443	0.8015
H	6.0372	-3.6270	-0.7633
H	6.1782	-1.8798	-0.8164
H	2.7741	-1.2103	-2.2891
H	4.2419	-0.4441	-1.7165
H	3.8988	-4.7535	-1.6347
H	2.5797	-3.7799	-2.2543
H	1.5322	-2.3434	1.0761
H	1.1692	-2.3600	-0.6385
H	4.4158	-4.7572	0.8958
H	3.4637	-3.7694	1.9853
X	3.3817	1.9761	-0.2717
X	0.0808	0.1239	0.4894
X	5.5917	-3.4965	3.7851
X	7.9714	-1.8543	1.2292
X	6.8381	-3.7846	-3.3960
X	3.9145	-1.6687	-4.7611
X	1.4422	-6.3651	-1.4168
X	0.7808	-5.0043	2.1359
0	1	S
1	2	S
3	1	S
3	4	S
3	14	S
3	20	S
4	5	S
4	22	S
4	23	S
5	6	S
5	9	S
5	21	S
6	7	S
6	8	S
9	10	S
9	24	S
9	25	S
10	11	S
10	14	S
10	15	S
11	12	S
11	13	S
14	26	S
14	27	S
15	16	S
15	28	S
15	29	S
16	17	S
16	20	S
16	21	S
17	18	S
17	19	S
20	30	S
20	31	S
21	32	S
21	33	S
34	0	S
35	2	S
36	7	S
37	8	S
38	12	S
39	13	S
40	18	S
41	19	S
