20
16	17	18	19
O	2.9729	-0.9912	-0.5935
C	2.2882	-0.1264	0.0402
O	1.0280	0.0348	-0.0470
C	3.0265	0.7828	0.9758
C	2.7804	0.7414	2.3683
Br	1.5862	-0.5958	3.0707
C	3.4344	1.6397	3.2425
Br	2.9309	1.7048	5.1015
C	4.4247	2.5270	2.7596
C	5.1445	3.4621	3.6918
O	5.0100	4.7076	3.4744
O	5.8280	2.9436	4.6283
C	4.7139	2.5230	1.3810
Br	6.1734	3.5902	0.7135
C	3.9809	1.6976	0.4857
Br	4.2330	1.8713	-1.4122
X	3.4573	-1.6030	-1.0418
X	0.1374	0.1487	-0.1086
X	4.9148	5.5892	3.3205
X	6.3123	2.5762	5.2919
0	1	S
1	2	S
1	3	S
3	4	D
3	14	S
4	5	S
4	6	S
6	7	S
6	8	D
8	9	S
8	12	S
9	10	S
9	11	S
12	13	S
12	14	D
14	15	S
16	0	S
17	2	S
18	10	S
19	11	S
