19
15	16	17	18
O	1.3450	0.3132	-0.7034
C	2.3198	-0.0143	0.0504
O	2.6692	0.6105	1.1020
C	3.1182	-1.2433	-0.3435
C	2.7780	-1.9643	-1.5098
C	3.4784	-3.1041	-1.9147
C	4.5480	-3.5305	-1.1169
N	5.3863	-4.5878	-1.2596
N	6.2277	-4.5262	-0.1961
N	5.9649	-3.4659	0.6128
C	4.9059	-2.8266	0.0514
C	4.1996	-1.6765	0.4473
H	1.9395	-1.6178	-2.1119
H	3.2271	-3.6606	-2.8047
H	4.4980	-1.1541	1.3473
X	5.3846	-5.1999	-1.9194
X	6.8856	-5.1213	-0.0444
X	6.4019	-3.2348	1.3649
X	1.6885	0.9575	0.3619
0	1	S
1	2	S
1	3	S
3	4	S
3	11	D
4	5	D
4	12	S
5	6	S
5	13	S
6	7	S
6	10	S
7	8	S
8	9	S
9	10	S
10	11	S
11	14	S
7	15	S
8	16	S
9	17	S
18	0	S
