20
16	17	18	19
O	2.9609	-0.3852	1.0508
C	2.2387	-0.0088	0.0733
O	0.9773	-0.1486	-0.0135
C	2.9214	0.6969	-1.0578
C	2.5810	2.0184	-1.3933
Cl	1.4340	2.9073	-0.4234
C	3.2003	2.6639	-2.4979
Cl	2.6227	4.2375	-2.9973
C	4.2273	2.0272	-3.2190
C	4.8990	2.7199	-4.3608
O	4.8430	2.1657	-5.5011
O	5.4943	3.8173	-4.0990
C	4.6051	0.7236	-2.8453
Cl	5.9506	-0.0562	-3.6334
C	3.9258	0.0469	-1.8025
Cl	4.2990	-1.6291	-1.4849
X	3.4718	-0.6515	1.7423
X	0.0849	-0.2475	-0.0749
X	4.8033	1.7727	-6.3098
X	5.9143	4.5916	-3.9143
0	1	S
1	2	S
1	3	S
3	4	D
3	14	S
4	5	S
4	6	S
6	7	S
6	8	D
8	9	S
8	12	S
9	10	S
9	11	S
12	13	S
12	14	D
14	15	S
16	0	S
17	2	S
18	10	S
19	11	S
