24
20	21	22	23
O	0.9653	-0.0091	0.1511
P	2.6950	0.0056	0.1220
O	2.8014	-1.0454	1.2805
O	2.7498	-0.5505	-1.3407
C	4.5247	0.0211	0.0911
N	5.0369	1.3269	0.7502
C	4.5389	1.3772	2.1860
C	4.8932	2.6891	2.9928
O	5.9783	2.6664	3.6652
O	4.0034	3.5991	3.0497
C	6.5430	1.3183	0.7650
C	7.2589	1.3176	-0.6382
O	7.7094	0.1894	-1.0335
O	7.5338	2.4518	-1.1446
H	4.8844	0.0498	-0.9438
H	4.9826	-0.8497	0.5770
H	4.9246	0.5180	2.7465
H	3.4452	1.3182	2.2050
H	6.9116	0.4643	1.3485
H	6.8960	2.2286	1.2622
X	6.7432	2.6504	4.1392
X	3.3748	4.2420	3.0899
X	8.0268	-0.6054	-1.3120
X	7.7283	3.2542	-1.5029
0	1	S
1	2	S
1	3	D
1	4	S
4	5	S
4	14	S
4	15	S
5	6	S
5	10	S
6	7	S
6	16	S
6	17	S
7	8	S
7	9	S
10	11	S
10	18	S
10	19	S
11	12	S
11	13	S
20	8	S
21	9	S
22	12	S
23	13	S
