14
10	11	12	13
O	0.8921	-0.1186	-0.0658
C	2.2153	0.0656	0.0179
O	2.7598	-1.0011	-0.8512
C	2.8379	1.4829	-0.4847
O	2.3443	2.5791	-0.0487
O	3.7871	1.4102	-1.3531
C	2.9758	-0.1075	1.4402
O	2.3994	0.2013	2.5349
O	4.1331	-0.6780	1.3515
H	3.6999	-0.9344	-0.5780
X	1.9969	3.3506	0.2581
X	4.4501	1.3594	-1.9596
X	1.9926	0.4193	3.3075
X	4.9384	-1.0750	1.2898
0	1	S
1	2	S
1	3	S
1	6	S
2	9	S
3	4	S
3	5	S
6	7	S
6	8	S
10	4	S
11	5	S
12	7	S
13	8	S
