17
12	13	14	15	16
O	1.2091	-0.4610	0.2395
C	2.3119	0.0618	-0.1208
O	2.8347	-0.0667	-1.2749
C	3.0458	0.8829	0.8789
C	4.2556	1.5035	0.5898
C	4.9142	2.2542	1.5608
C	4.3510	2.3807	2.8294
C	5.1244	3.2091	3.8687
O	4.6329	3.3406	5.0398
O	6.2347	3.7291	3.5006
N	3.1543	1.7808	3.1307
C	2.5467	1.0574	2.1546
X	2.7788	1.8595	3.9448
X	0.4291	-0.8308	0.4943
X	3.2042	-0.1575	-2.0905
X	4.2865	3.4333	5.8653
X	7.0153	4.0947	3.2418
0	1	S
1	2	S
1	3	S
3	4	D
3	11	S
4	5	S
5	6	D
6	7	S
6	10	S
7	8	S
7	9	S
10	11	S
10	12	S
13	0	S
14	2	S
15	8	S
16	9	S
