27
24	25	26
O	1.0560	-0.1649	-0.2538
C	2.2531	-0.0507	0.1613
O	2.8142	-0.7913	1.0232
C	3.0897	1.1245	-0.4392
C	4.5073	1.1865	0.1399
C	5.3327	2.4287	-0.2323
C	6.2866	2.3742	-1.4599
O	6.9487	3.4396	-1.6790
O	6.4771	1.2396	-1.9920
C	4.5299	3.7263	-0.0320
C	3.0697	3.7293	-0.5053
C	2.8668	4.3322	-1.9190
O	2.8095	3.5422	-2.9005
O	2.6761	5.5948	-1.9260
C	2.3215	2.4279	-0.1945
H	3.1659	0.9544	-1.5231
H	5.0487	0.2724	-0.1356
H	4.4344	1.1640	1.2370
H	6.1039	2.4675	0.5578
H	5.0629	4.5876	-0.4509
H	4.5008	3.9041	1.0534
H	2.5699	4.4816	0.1287
H	1.3757	2.4122	-0.7538
H	2.0335	2.4575	0.8674
X	1.6106	-0.9532	0.6225
X	7.0224	2.3322	-2.4069
X	2.7097	4.7989	-3.0133
0	1	S
1	2	S
1	3	S
3	4	S
3	14	S
3	15	S
4	5	S
4	16	S
4	17	S
5	6	S
5	9	S
5	18	S
6	7	S
6	8	S
9	10	S
9	19	S
9	20	S
10	11	S
10	14	S
10	21	S
11	12	S
11	13	S
14	22	S
14	23	S
24	0	S
25	7	S
26	12	S
