10
7	8	9
N	0.0032	1.1876	-0.0002
C	1.0790	0.3853	0.0014
C	0.6737	-0.9207	0.0014
N	-0.6673	-0.9731	0.0001
N	-1.0557	0.3318	-0.0006
H	2.0881	0.7632	0.0023
H	1.2921	-1.8032	0.0024
X	-0.0060	2.0876	-0.0009
X	-1.1843	-1.7098	-0.0002
X	-1.9153	0.5985	-0.0013
0	1	S
0	4	S
1	2	D
1	5	S
2	3	S
2	6	S
3	4	S
0	7	S
3	8	S
4	9	S
