38
34	35	36	37
C	1.0691	0.6440	0.4083
O	2.3716	0.1503	0.1332
C	3.0460	0.7080	-0.9150
C	2.7376	1.9841	-1.4052
C	3.4378	2.5252	-2.4828
C	4.4715	1.8127	-3.0986
C	5.2176	2.4197	-4.2718
O	6.1507	1.7271	-4.7866
O	4.8517	3.5760	-4.6553
C	4.7853	0.5345	-2.5971
C	4.0939	-0.0205	-1.5034
O	4.4962	-1.2980	-1.1666
S	4.3110	-1.9319	0.3282
O	4.9024	-1.0359	1.3110
O	2.9639	-2.4526	0.4816
C	5.3367	-3.3980	0.3595
C	5.9102	-3.9228	-0.7984
C	6.7141	-5.0674	-0.7009
C	6.9535	-5.6931	0.5386
C	7.8626	-6.9067	0.6460
O	8.0331	-7.4037	1.8053
O	8.3888	-7.3376	-0.4283
C	6.3394	-5.1586	1.6832
C	5.5362	-4.0199	1.5989
H	0.6086	-0.0184	1.1472
H	0.4399	0.6335	-0.4885
H	1.1129	1.6454	0.8486
H	1.9575	2.5942	-0.9658
H	3.1803	3.5162	-2.8533
H	5.5878	-0.0277	-3.0739
H	5.7497	-3.4687	-1.7711
H	7.1761	-5.4844	-1.5958
H	6.5047	-5.6390	2.6467
H	5.0739	-3.6227	2.4986
X	6.8114	1.2367	-5.1511
X	4.5928	4.3941	-4.9266
X	8.1537	-7.7551	2.6250
X	8.7613	-7.6426	-1.1887
0	1	S
0	24	S
0	25	S
0	26	S
1	2	S
2	3	D
2	10	S
3	4	S
3	27	S
4	5	D
4	28	S
5	6	S
5	9	S
6	7	S
6	8	S
9	10	D
9	29	S
10	11	S
11	12	S
12	13	S
12	14	S
12	15	S
15	16	D
15	23	S
16	17	S
16	30	S
17	18	D
17	31	S
18	19	S
18	22	S
19	20	S
19	21	S
22	23	D
22	32	S
23	33	S
34	7	S
35	8	S
36	20	S
37	21	S
