13
10	11	12
O	2.7223	-1.2404	-0.1449
C	2.2508	-0.0544	-0.0836
O	1.1485	0.2525	0.4850
C	3.0199	1.0176	-0.7023
C	2.7378	2.3510	-0.7707
N	3.6873	3.0553	-1.4284
N	4.6322	2.1576	-1.8095
C	4.2110	0.9512	-1.3648
H	1.8601	2.8298	-0.3559
H	4.7857	0.0502	-1.5359
X	3.6898	3.9422	-1.5815
X	5.3884	2.3285	-2.2666
X	1.6175	-0.9372	0.4259
0	1	S
1	2	S
1	3	S
3	4	D
3	7	S
4	5	S
4	8	S
5	6	S
6	7	S
7	9	S
5	10	S
6	11	S
12	0	S
