20
17	18	19
O	1.0318	-0.3779	-0.3528
C	2.2603	-0.1348	-0.1791
O	2.9365	0.8832	-0.4919
C	3.0155	-1.2680	0.5156
C	4.3301	-1.1967	0.7776
C	5.1133	-2.2477	1.4345
C	4.8023	-3.6059	1.3367
C	5.6225	-4.5541	1.9441
C	6.7423	-4.1127	2.6292
N	7.0895	-2.8144	2.7473
C	6.2669	-1.9172	2.1440
H	2.4148	-2.1282	0.7899
H	4.8711	-0.2939	0.4949
H	3.9291	-3.9320	0.7783
H	5.3931	-5.6106	1.8745
H	7.4137	-4.8159	3.1113
H	6.5711	-0.8793	2.2544
X	7.8249	-2.5623	3.2008
X	0.1573	-0.5510	-0.4764
X	3.4189	1.6095	-0.7151
0	1	S
1	2	S
1	3	S
3	4	D
3	11	S
4	5	S
4	12	S
5	6	D
5	10	S
6	7	S
6	13	S
7	8	D
7	14	S
8	9	S
8	15	S
9	10	S
10	16	S
9	17	S
18	0	S
19	2	S
