38
30	31	32	33	34	35	36	37
O	2.6004	0.9378	-0.8769
C	2.0487	-0.0103	-0.2214
O	0.8200	-0.3370	-0.3603
C	2.9074	-0.8239	0.7420
C	2.4865	-2.1000	1.1758
C	3.2719	-2.8961	2.0297
C	2.8259	-4.2991	2.4341
O	3.5711	-4.9693	3.2257
O	1.7267	-4.7488	1.9585
C	4.5096	-2.3619	2.4679
C	5.0005	-1.0944	2.0561
C	6.4047	-0.6479	2.3915
C	7.4414	-1.6450	2.3743
C	8.8196	-1.3642	2.5230
C	9.8865	-2.4481	2.5196
O	11.1064	-2.0777	2.6353
O	9.5263	-3.6662	2.4081
C	9.1829	-0.0269	2.6611
C	8.2091	0.9704	2.7159
C	6.8187	0.6943	2.6267
C	5.9102	1.8943	2.8613
O	6.3438	3.0330	2.4482
O	4.8724	1.7528	3.5821
C	4.1629	-0.3476	1.1953
H	1.5313	-2.4872	0.8220
H	5.1120	-2.9801	3.1293
H	7.1716	-2.6893	2.2109
H	10.2326	0.2416	2.7408
H	8.5258	2.0033	2.8467
H	4.4900	0.6288	0.8395
X	2.9890	1.6055	-1.3386
X	-0.0446	-0.5669	-0.4580
X	4.0962	-5.4416	3.7835
X	0.9534	-5.0652	1.6239
X	11.9641	-1.8173	2.7166
X	9.2721	-4.5260	2.3294
X	6.6471	3.8296	2.1592
X	4.1378	1.6526	4.0923
0	1	S
1	2	S
1	3	S
3	4	D
3	23	S
4	5	S
4	24	S
5	6	S
5	9	D
6	7	S
6	8	S
9	10	S
9	25	S
10	11	S
10	23	D
11	12	D
11	19	S
12	13	S
12	26	S
13	14	S
13	17	D
14	15	S
14	16	S
17	18	S
17	27	S
18	19	D
18	28	S
19	20	S
20	21	S
20	22	S
23	29	S
30	0	S
31	2	S
32	7	S
33	8	S
34	15	S
35	16	S
36	21	S
37	22	S
