38
30	31	32	33	34	35	36	37
O	2.8042	-1.3792	0.0310
C	2.3011	-0.2076	-0.0217
O	1.1950	0.1097	0.5380
C	3.0418	0.8742	-0.8006
C	2.5144	2.1596	-0.9319
C	3.1838	3.1567	-1.6655
C	4.4449	2.9638	-2.2849
C	5.0045	4.0902	-3.1341
C	5.5305	3.7562	-4.4083
C	6.0172	4.7056	-5.3263
C	5.9700	6.0722	-5.0514
C	6.4870	7.0967	-6.0529
O	6.3765	8.3375	-5.7807
O	7.0026	6.6601	-7.1435
C	5.4221	6.4379	-3.8084
C	4.9493	5.4891	-2.8340
C	4.4204	6.1011	-1.5383
O	3.7451	7.1863	-1.6388
O	4.6918	5.5546	-0.4210
C	5.0078	1.6541	-2.1435
C	6.3557	1.2067	-2.7101
O	6.4166	0.0262	-3.2053
O	7.3643	1.9814	-2.6329
C	4.2828	0.6460	-1.4196
H	1.5656	2.3994	-0.4573
H	2.6921	4.1237	-1.7456
H	5.5792	2.7122	-4.7107
H	6.4428	4.3637	-6.2653
H	5.3592	7.4993	-3.5654
H	4.7239	-0.3488	-1.3418
X	3.1590	-2.2055	0.0682
X	0.4170	0.3329	0.9317
X	6.2985	9.2133	-5.5886
X	7.3643	6.3538	-7.9086
X	3.2711	7.9481	-1.7093
X	4.8837	5.1682	0.3689
X	6.4594	-0.8028	-3.5531
X	8.0767	2.5286	-2.5784
0	1	S
1	2	S
1	3	S
3	4	D
3	23	S
4	5	S
4	24	S
5	6	D
5	25	S
6	7	S
6	19	S
7	8	D
7	15	S
8	9	S
8	26	S
9	10	D
9	27	S
10	11	S
10	14	S
11	12	S
11	13	S
14	15	D
14	28	S
15	16	S
16	17	S
16	18	S
19	20	S
19	23	D
20	21	S
20	22	S
23	29	S
30	0	S
31	2	S
32	12	S
33	13	S
34	17	S
35	18	S
36	21	S
37	22	S
