42
38	39	40	41
C	2.5636	0.7011	0.5270
C	1.1740	0.2032	0.2361
C	1.1431	-1.2236	0.2105
C	-0.0192	-1.9523	0.0166
C	-0.0121	-3.4693	0.0423
O	-1.1340	-4.0536	-0.0750
O	1.1079	-4.0528	0.1740
C	-1.1693	-1.2135	-0.2208
C	-1.1737	0.2126	-0.3228
C	-2.5100	0.7537	-0.7804
C	0.0079	0.9972	-0.0458
C	0.0069	2.5559	-0.0490
C	-1.0027	3.3372	0.6136
C	-2.1028	2.8148	1.5032
C	-1.0436	4.7653	0.5248
C	-0.0453	5.5044	-0.0859
C	-0.0647	7.0248	-0.1164
O	0.9496	7.6109	-0.5917
O	-1.1045	7.6021	0.3409
C	0.9798	4.7868	-0.6663
C	1.0097	3.3531	-0.7076
C	2.2191	2.8628	-1.4495
H	3.1215	-0.0122	1.1477
H	2.5654	1.6439	1.0730
H	3.1310	0.7541	-0.4082
H	2.0621	-1.7902	0.3621
H	-2.0930	-1.7781	-0.3707
H	-3.1449	-0.0546	-1.1702
H	-2.3940	1.4726	-1.5926
H	-3.0961	1.1609	0.0370
H	-1.9718	1.7745	1.7976
H	-3.0707	2.9624	1.0077
H	-2.1382	3.3935	2.4339
H	-1.8667	5.3133	0.9853
H	1.7992	5.3563	-1.1094
H	2.5362	3.5817	-2.2161
H	2.0317	1.9245	-1.9695
H	3.0683	2.8024	-0.7619
X	-1.9288	-4.4676	-0.1581
X	1.9018	-4.4664	0.2674
X	1.6717	8.0281	-0.9301
X	-1.8389	8.0099	0.6639
0	1	S
0	22	S
0	23	S
0	24	S
1	2	D
1	10	S
2	3	S
2	25	S
3	4	S
3	7	D
4	5	S
4	6	S
7	8	S
7	26	S
8	9	S
8	10	D
9	27	S
9	28	S
9	29	S
10	11	S
11	12	D
11	20	S
12	13	S
12	14	S
13	30	S
13	31	S
13	32	S
14	15	D
14	33	S
15	16	S
15	19	S
16	17	S
16	18	S
19	20	D
19	34	S
20	21	S
21	35	S
21	36	S
21	37	S
38	5	S
39	6	S
40	17	S
41	18	S
