30
25	26	27	28	29
O	2.8505	-1.2714	-0.0070
C	2.3568	-0.0980	-0.0107
O	1.3493	0.2791	0.6699
C	3.0279	0.9349	-0.8972
C	2.5643	2.2556	-0.9554
C	3.1749	3.2032	-1.7909
C	4.2664	2.8682	-2.6117
C	4.8783	3.8565	-3.5311
C	6.2427	3.8535	-3.8358
N	6.8671	4.7017	-4.6929
C	6.0785	5.6326	-5.2874
C	4.7156	5.7639	-5.0639
C	3.9269	6.8381	-5.7577
O	2.6902	6.9306	-5.4789
O	4.5568	7.5833	-6.5737
C	4.1242	4.8518	-4.1740
C	4.7326	1.5428	-2.5373
C	4.1286	0.5970	-1.6956
H	1.7089	2.5454	-0.3472
H	2.7740	4.2144	-1.7911
H	6.9149	3.1371	-3.3722
H	6.5903	6.3004	-5.9772
H	3.0506	4.9290	-4.0079
H	5.5607	1.2092	-3.1566
H	4.5061	-0.4237	-1.6700
X	7.7505	4.6500	-4.8571
X	3.1995	-2.1010	-0.0044
X	0.6370	0.5457	1.1511
X	1.8146	6.9961	-5.2815
X	5.0025	8.1106	-7.1511
0	1	S
1	2	S
1	3	S
3	4	D
3	17	S
4	5	S
4	18	S
5	6	D
5	19	S
6	7	S
6	16	S
7	8	D
7	15	S
8	9	S
8	20	S
9	10	S
10	11	S
10	21	S
11	12	S
11	15	D
12	13	S
12	14	S
15	22	S
16	17	D
16	23	S
17	24	S
9	25	S
26	0	S
27	2	S
28	13	S
29	14	S
