12
8	9	10	11
O	1.0334	-0.0002	0.0195
C	2.3033	0.0398	0.0567
O	3.0087	0.8116	0.7795
C	3.0489	-0.9266	-0.8489
C	3.6423	-1.6944	-1.5683
C	4.3900	-2.6602	-2.4732
O	5.6595	-2.6245	-2.4266
O	3.6853	-3.4254	-3.2034
X	0.1342	-0.0285	-0.0068
X	3.5082	1.3581	1.2913
X	6.5585	-2.5992	-2.3936
X	3.1863	-3.9673	-3.7205
0	1	S
1	2	S
1	3	S
3	4	A
4	5	S
5	6	S
5	7	S
8	0	S
9	2	S
10	6	S
11	7	S
