16
13	14	15
O	1.1643	0.1077	0.7493
C	2.1868	0.0464	-0.0014
O	2.6132	-0.9885	-0.6013
C	2.9637	1.3157	-0.1955
C	4.0976	1.3390	-1.0014
N	4.8595	2.4441	-1.2278
C	4.4592	3.5780	-0.6075
C	3.3471	3.6607	0.2167
Br	2.8821	5.2902	1.0456
C	2.5880	2.5166	0.4224
H	4.4354	0.4340	-1.5032
H	5.0840	4.4436	-0.8009
H	1.7054	2.5306	1.0582
X	5.5868	2.4261	-1.7576
X	0.4397	0.1511	1.2813
X	2.9154	-1.7219	-1.0265
0	1	S
1	2	S
1	3	S
3	4	D
3	9	S
4	5	S
4	10	S
5	6	S
6	7	S
6	11	S
7	8	S
7	9	D
9	12	S
5	13	S
14	0	S
15	2	S
