25
21	22	23	24
O	1.8293	-1.2019	0.1771
C	2.3909	-0.0864	-0.1064
O	2.5347	0.3854	-1.2845
C	3.0278	0.7157	1.1022
O	4.4387	0.3082	1.2593
C	5.2669	1.5180	1.3669
C	6.6565	1.2382	2.0688
O	6.7372	0.3320	2.9541
O	7.6537	1.8658	1.5592
C	4.3194	2.6711	1.7151
C	4.3538	2.9931	3.2215
O	3.4929	2.4611	3.9772
O	5.2226	3.8635	3.5675
C	3.0304	2.2407	0.9922
C	1.6958	2.9546	1.2808
O	1.6998	4.2195	1.0937
O	0.6698	2.2496	1.5294
H	2.5231	0.3998	2.0228
H	5.5670	1.6906	0.3209
H	4.6897	3.5863	1.2298
H	3.2004	2.4863	-0.0688
X	1.9085	-0.6940	-1.0219
X	7.7107	1.0259	2.6013
X	4.3806	3.2439	4.3947
X	0.6564	3.5106	1.5056
0	1	S
1	2	S
1	3	S
3	4	S
3	13	S
3	17	S
4	5	S
5	6	S
5	9	S
5	18	S
6	7	S
6	8	S
9	10	S
9	13	S
9	19	S
10	11	S
10	12	S
13	14	S
13	20	S
14	15	S
14	16	S
21	0	S
22	7	S
23	11	S
24	15	S
