15
9	10	11	12	13	14
O	0.8885	0.0405	0.0919
C	2.3265	0.0277	0.0205
O	2.7159	0.0306	1.4070
C	2.9050	-1.2837	-0.8829
O	2.5287	-1.3861	-2.1122
O	3.6214	-2.1790	-0.2892
C	3.0127	1.3189	-0.8335
O	2.2318	2.2137	-1.3399
O	4.3002	1.4084	-0.8667
X	-0.0104	0.0485	0.1365
X	2.9593	0.0324	2.2735
X	2.2661	-1.4576	-2.9701
X	4.1207	-2.8030	0.1246
X	1.6874	2.8375	-1.6929
X	5.1977	1.4708	-0.8898
0	1	S
1	2	S
1	3	S
1	6	S
3	4	S
3	5	S
6	7	S
6	8	S
9	0	S
10	2	S
11	4	S
12	5	S
13	7	S
14	8	S
