33
29	30	31	32
O	0.9674	-0.0145	-0.0164
P	2.6968	0.0285	-0.0005
O	2.6754	1.2554	0.9560
O	2.7923	-1.4174	0.5681
C	4.5262	0.0740	0.0162
C	5.2528	1.1713	0.5222
C	6.6525	1.1810	0.5899
C	7.4049	0.0885	0.1478
C	8.8863	0.0624	0.2675
C	9.5684	0.7299	1.3090
C	10.9724	0.6882	1.4464
C	11.6656	1.4411	2.5755
O	12.9366	1.3514	2.6704
O	10.9431	2.1348	3.3657
C	11.7013	-0.0750	0.5091
C	11.0705	-0.7586	-0.5502
C	11.8515	-1.5969	-1.5512
O	11.1975	-2.1785	-2.4830
O	13.1163	-1.6817	-1.4142
C	9.6720	-0.6562	-0.6557
C	6.6857	-0.9956	-0.3936
C	5.2842	-0.9965	-0.4712
H	4.7053	2.0227	0.9202
H	7.1264	2.0565	1.0254
H	9.0062	1.2882	2.0572
H	12.7839	-0.1398	0.6098
H	9.1906	-1.1631	-1.4907
H	7.2009	-1.8922	-0.7248
H	4.7542	-1.8695	-0.8432
X	13.8319	1.2882	2.7372
X	10.4334	2.6242	3.9231
X	10.7371	-2.5880	-3.1390
X	14.0091	-1.7416	-1.3175
0	1	S
1	2	S
1	3	D
1	4	S
4	5	D
4	21	S
5	6	S
5	22	S
6	7	D
6	23	S
7	8	S
7	20	S
8	9	D
8	19	S
9	10	S
9	24	S
10	11	S
10	14	D
11	12	S
11	13	S
14	15	S
14	25	S
15	16	S
15	19	D
16	17	S
16	18	S
19	26	S
20	21	D
20	27	S
21	28	S
29	12	S
30	13	S
31	17	S
32	18	S
