20
16	17	18	19
C	0.9985	0.1866	-0.1797
C	2.4791	0.0848	-0.0418
N	3.2148	0.9856	0.5657
N	4.5834	0.5134	0.5595
C	4.6052	-0.6459	-0.0566
C	5.8261	-1.4956	-0.1501
C	3.2864	-1.0169	-0.5144
C	2.8625	-2.1925	-1.2946
O	1.6723	-2.5755	-1.1085
O	3.7274	-2.6861	-2.0690
H	0.6895	1.2326	-0.0898
H	0.5263	-0.3885	0.6216
H	0.6661	-0.1891	-1.1487
H	6.7172	-0.8627	-0.1206
H	5.8529	-2.0832	-1.0674
H	5.8492	-2.1701	0.7119
X	2.8657	1.7429	0.9042
X	5.3269	0.8927	0.8962
X	0.8249	-2.8482	-0.9760
X	4.3444	-3.0383	-2.6215
0	1	S
0	10	S
0	11	S
0	12	S
1	2	S
1	6	S
2	3	S
3	4	S
4	5	S
4	6	S
5	13	S
5	14	S
5	15	S
6	7	S
7	8	S
7	9	S
2	16	S
3	17	S
18	8	S
19	9	S
