22
19	20	21
O	2.1539	-0.1764	-1.1201
C	2.2409	-0.0165	0.1361
O	1.6815	-0.7642	1.0038
C	3.0458	1.1592	0.6738
C	2.7277	1.6202	1.9680
C	3.4012	2.6901	2.5414
C	4.4120	3.3223	1.8244
C	4.7708	2.9140	0.5487
N	5.7637	3.5968	-0.0573
C	6.1287	3.2146	-1.2973
C	5.5561	2.1626	-1.9746
C	4.5406	1.4607	-1.3362
C	4.0928	1.8182	-0.0454
H	1.9339	1.1231	2.5266
H	3.1387	3.0269	3.5388
H	4.9390	4.1591	2.2744
H	6.9240	3.7986	-1.7478
H	5.8743	1.8858	-2.9712
H	4.0914	0.6259	-1.8673
X	6.1704	4.2867	0.3534
X	2.0922	-0.2898	-2.0108
X	1.2865	-1.2921	1.6164
0	1	S
1	2	S
1	3	S
3	4	D
3	12	S
4	5	S
4	13	S
5	6	D
5	14	S
6	7	S
6	15	S
7	8	S
7	12	D
8	9	S
9	10	S
9	16	S
10	11	D
10	17	S
11	12	S
11	18	S
8	19	S
20	0	S
21	2	S
