42
38	39	40	41
O	2.3334	0.0446	-1.4406
C	2.3296	-0.0195	-0.1681
O	1.7415	-0.9136	0.5235
C	3.0968	1.0535	0.5824
C	3.1749	1.0509	1.9835
C	3.9044	2.0335	2.6727
C	4.5662	3.0695	1.9897
N	5.3265	4.0854	2.6991
C	6.5213	4.6600	2.1014
C	6.8623	6.0123	2.3070
C	8.0360	6.5596	1.7803
C	8.8777	5.7773	0.9969
C	8.5502	4.4458	0.7512
C	7.3938	3.8898	1.3105
C	4.8788	4.5683	3.9962
C	5.8028	4.9444	4.9903
C	5.3844	5.5143	6.1999
C	4.0239	5.6901	6.4816
C	3.5771	6.3315	7.7846
O	2.3241	6.4375	7.9843
O	4.4863	6.7275	8.5795
C	3.0957	5.2661	5.5199
C	3.5144	4.7250	4.2936
C	4.4627	3.0781	0.5858
C	3.7541	2.0828	-0.1032
H	2.6597	0.2704	2.5408
H	3.9520	1.9684	3.7570
H	6.2101	6.6563	2.8938
H	8.2835	7.5968	1.9888
H	9.7849	6.2035	0.5795
H	9.1961	3.8308	0.1312
H	7.1826	2.8381	1.1299
H	6.8696	4.8158	4.8282
H	6.1242	5.8362	6.9308
H	2.0318	5.3761	5.7239
H	2.7550	4.4535	3.5657
H	4.9271	3.8683	0.0034
H	3.7061	2.1089	-1.1907
X	2.3361	0.0899	-2.3395
X	1.3261	-1.5451	1.0120
X	1.4384	6.5124	8.1255
X	5.1301	7.0079	9.1424
0	1	S
1	2	S
1	3	S
3	4	D
3	24	S
4	5	S
4	25	S
5	6	D
5	26	S
6	7	S
6	23	S
7	8	S
7	14	S
8	9	D
8	13	S
9	10	S
9	27	S
10	11	D
10	28	S
11	12	S
11	29	S
12	13	D
12	30	S
13	31	S
14	15	D
14	22	S
15	16	S
15	32	S
16	17	D
16	33	S
17	18	S
17	21	S
18	19	S
18	20	S
21	22	D
21	34	S
22	35	S
23	24	D
23	36	S
24	37	S
38	0	S
39	2	S
40	19	S
41	20	S
