24
20	21	22	23
N	-1.9143	1.2394	0.1497
C	-0.6067	0.6668	0.0173
C	0.5516	1.4681	0.0476
C	0.5098	2.9875	0.0340
O	1.6177	3.6152	0.1135
O	-0.6317	3.5523	-0.0856
C	1.7933	0.8068	0.0125
C	1.8824	-0.5915	-0.0420
C	0.7346	-1.4022	-0.0629
C	0.8785	-2.9128	-0.0547
O	-0.1465	-3.6065	0.2663
O	2.0225	-3.4036	-0.3423
C	-0.5160	-0.7565	-0.0101
N	-1.7377	-1.4941	-0.1456
H	-1.8054	2.2588	-0.0157
H	-2.5011	0.7994	-0.5516
H	2.7081	1.3969	0.0201
H	2.8636	-1.0625	-0.0613
H	-1.5073	-2.4792	0.0877
H	-2.3956	-1.0900	0.5131
X	2.3992	4.0580	0.1696
X	-1.4348	3.9497	-0.1697
X	-0.8680	-4.0948	0.4922
X	2.8284	-3.7493	-0.5449
0	1	S
0	14	S
0	15	S
1	2	D
1	12	S
2	3	S
2	6	S
3	4	S
3	5	S
6	7	D
6	16	S
7	8	S
7	17	S
8	9	S
8	12	D
9	10	S
9	11	S
12	13	S
13	18	S
13	19	S
20	4	S
21	5	S
22	10	S
23	11	S
