37
30	31	32	33	34	35	36
O	2.3864	-0.2198	1.9215
C	2.8123	-0.0508	0.7334
O	2.8043	1.0597	0.1049
C	3.3766	-1.2611	0.0102
C	3.8532	-1.1357	-1.3012
C	4.3984	-2.2322	-1.9719
C	4.4858	-3.4882	-1.3590
C	5.0926	-4.5314	-2.1419
N	5.6131	-5.0810	-3.0459
C	5.9518	-6.4443	-2.9313
C	5.2769	-7.3926	-2.1533
C	5.6567	-8.7539	-2.1503
C	4.9110	-9.7520	-1.2799
O	5.3062	-10.9626	-1.2736
O	3.9254	-9.3121	-0.5990
C	6.7332	-9.1540	-2.9744
C	7.4149	-8.2387	-3.7981
C	8.5548	-8.6652	-4.7115
O	9.0664	-7.7744	-5.4701
O	8.9388	-9.8792	-4.6733
C	7.0001	-6.8939	-3.7557
C	4.0004	-3.6425	-0.0596
C	3.4509	-2.5342	0.6169
H	3.8041	-0.1699	-1.7985
H	4.7651	-2.1019	-2.9870
H	4.4278	-7.0950	-1.5438
H	7.0394	-10.2007	-2.9790
H	7.5080	-6.1753	-4.3974
H	4.0428	-4.6069	0.4415
H	3.0761	-2.6489	1.6337
X	5.7374	-4.5247	-3.7423
X	2.0854	-0.3392	2.7612
X	2.7987	1.8429	-0.3384
X	5.5855	-11.8182	-1.2691
X	3.2303	-9.0019	-0.1188
X	9.4270	-7.1466	-6.0047
X	9.2101	-10.7369	-4.6463
0	1	S
1	2	S
1	3	S
3	4	D
3	22	S
4	5	S
4	23	S
5	6	D
5	24	S
6	7	S
6	21	S
7	8	S
8	9	S
9	10	D
9	20	S
10	11	S
10	25	S
11	12	S
11	15	D
12	13	S
12	14	S
15	16	S
15	26	S
16	17	S
16	20	D
17	18	S
17	19	S
20	27	S
21	22	D
21	28	S
22	29	S
8	30	S
31	0	S
32	2	S
33	13	S
34	14	S
35	18	S
36	19	S
