23
19	20	21	22
C	1.2282	0.1537	-0.0397
O	2.5648	-0.0964	0.0242
C	3.2050	-0.5451	-1.1108
C	2.8215	-0.1934	-2.4064
C	3.5416	-0.6412	-3.5285
C	3.0798	-0.2461	-4.9231
O	3.7505	-0.6606	-5.9212
O	2.0322	0.4797	-5.0034
C	4.6832	-1.4416	-3.3059
C	5.1054	-1.7934	-2.0044
C	6.3472	-2.6350	-1.7574
O	6.6365	-2.9023	-0.5423
O	7.0250	-3.0221	-2.7619
C	4.3429	-1.3309	-0.9154
H	0.8500	0.6922	0.8095
H	0.6501	-0.3538	-0.7921
H	1.9639	0.4517	-2.5758
H	5.2617	-1.7905	-4.1644
H	4.6552	-1.5882	0.0937
X	4.2251	-0.9539	-6.6274
X	1.2939	0.9912	-5.0600
X	6.8403	-3.0906	0.3138
X	7.5045	-3.2960	-3.4726
0	1	S
0	14	S
0	15	S
1	2	S
2	3	D
2	13	S
3	4	S
3	16	S
4	5	S
4	8	D
5	6	S
5	7	S
8	9	S
8	17	S
9	10	S
9	13	D
10	11	S
10	12	S
13	18	S
19	6	S
20	7	S
21	11	S
22	12	S
