38
30	31	32	33	34	35	36	37
O	2.8113	-0.6604	0.9559
C	2.1719	0.1428	0.1956
O	0.9808	0.5462	0.4445
C	2.8662	0.7140	-1.0321
C	2.3353	1.8507	-1.6417
C	2.9364	2.3927	-2.7746
C	4.0923	1.8271	-3.3765
C	4.5298	2.5357	-4.6553
O	4.8560	1.8474	-5.6784
O	4.4089	3.8143	-4.6741
C	4.7006	0.6818	-2.7700
C	6.0290	0.0802	-3.2014
C	7.0993	0.9706	-3.5628
C	8.4081	0.5521	-3.9164
C	9.5123	1.5143	-4.3311
O	10.5372	1.0159	-4.9242
O	9.4118	2.7471	-4.0252
C	8.6751	-0.8131	-3.8630
C	7.6808	-1.7147	-3.4921
C	6.3525	-1.3149	-3.1785
C	5.4127	-2.4785	-2.8718
O	5.9201	-3.4654	-2.2234
O	4.2432	-2.4950	-3.3684
C	4.0475	0.1648	-1.5960
H	1.4430	2.3140	-1.2324
H	2.4987	3.2815	-3.2234
H	6.9119	2.0453	-3.5785
H	9.6679	-1.1768	-4.1137
H	7.9275	-2.7743	-3.4515
H	4.4694	-0.7053	-1.0940
X	3.2618	-1.2263	1.4915
X	0.1446	0.8294	0.6192
X	5.0862	1.3617	-6.4003
X	4.3242	4.7102	-4.6873
X	11.2552	0.6668	-5.3397
X	9.3408	3.6179	-3.8091
X	6.2754	-4.1565	-1.7694
X	3.4149	-2.5067	-3.7201
0	1	S
1	2	S
1	3	S
3	4	D
3	23	S
4	5	S
4	24	S
5	6	D
5	25	S
6	7	S
6	10	S
7	8	S
7	9	S
10	11	S
10	23	D
11	12	D
11	19	S
12	13	S
12	26	S
13	14	S
13	17	D
14	15	S
14	16	S
17	18	S
17	27	S
18	19	D
18	28	S
19	20	S
20	21	S
20	22	S
23	29	S
30	0	S
31	2	S
32	8	S
33	9	S
34	15	S
35	16	S
36	21	S
37	22	S
