25
21	22	23	24
O	1.0958	-0.1228	-0.3091
C	2.3214	-0.1329	0.0491
O	2.8314	0.6229	0.9494
C	3.2824	-1.2110	-0.6034
O	3.2680	-2.4297	0.2239
C	3.1529	-3.5973	-0.6559
C	3.4280	-3.1242	-2.0905
C	2.9630	-1.6564	-2.0301
C	3.3501	-0.6609	-3.1405
O	2.9634	-0.9790	-4.3194
O	3.9016	0.4322	-2.8173
C	4.8532	-3.4666	-2.5735
O	5.8394	-2.9646	-1.9608
O	4.9156	-4.2459	-3.5854
C	3.7321	-4.9207	-0.0158
O	4.2457	-4.8772	1.1499
O	3.4688	-5.9951	-0.6573
H	4.3076	-0.8258	-0.5443
H	2.0727	-3.8102	-0.6244
H	2.7551	-3.6707	-2.7673
H	1.8638	-1.6995	-2.1161
X	1.5937	0.6834	0.5432
X	3.6516	0.1144	-4.0053
X	5.9614	-3.7328	-2.9491
X	4.1720	-5.9258	0.4703
0	1	S
1	2	S
1	3	S
3	4	S
3	7	S
3	17	S
4	5	S
5	6	S
5	14	S
5	18	S
6	7	S
6	11	S
6	19	S
7	8	S
7	20	S
8	9	S
8	10	S
11	12	S
11	13	S
14	15	S
14	16	S
21	0	S
22	9	S
23	12	S
24	15	S
