19
15	16	17	18
C	1.0856	0.0324	0.1343
C	2.6169	0.0144	0.1026
C	3.1052	0.8256	-1.1024
C	3.1003	0.5912	1.4391
O	2.7010	0.0267	2.5042
O	3.7187	1.7051	1.3802
C	3.1924	-1.4009	-0.0382
O	2.3470	-2.3517	-0.1162
O	4.4400	-1.5040	-0.2557
H	0.7025	1.0547	0.2332
H	0.6809	-0.5495	0.9708
H	0.6651	-0.3911	-0.7857
H	2.6839	1.8381	-1.0968
H	2.8140	0.3508	-2.0465
H	4.1964	0.9337	-1.1128
X	2.4180	-0.3734	3.2591
X	4.1551	2.4911	1.3386
X	1.7501	-3.0230	-0.1713
X	5.3237	-1.5770	-0.4098
0	1	S
0	9	S
0	10	S
0	11	S
1	2	S
1	3	S
1	6	S
2	12	S
2	13	S
2	14	S
3	4	S
3	5	S
6	7	S
6	8	S
15	4	S
16	5	S
17	7	S
18	8	S
