34
28	29	30	31	32	33
O	2.1482	1.1994	0.2307
C	2.1998	0.0590	-0.3338
O	1.5773	-0.2489	-1.4044
C	3.0747	-1.0137	0.2986
C	3.1423	-2.3079	-0.2337
C	3.9226	-3.3099	0.3745
C	4.6917	-3.0648	1.5312
C	5.5503	-4.1271	2.1563
C	6.2095	-5.0515	1.3056
C	7.0982	-6.0315	1.7804
C	7.4128	-6.1256	3.1384
C	8.4159	-7.1567	3.6360
O	8.7146	-7.1733	4.8745
O	8.9019	-7.9593	2.7698
C	6.7566	-5.2361	4.0026
C	5.8088	-4.2659	3.5473
C	5.1000	-3.4687	4.6276
O	5.8235	-2.9621	5.5476
O	3.8294	-3.3857	4.5785
C	4.6398	-1.7533	2.0293
C	3.8400	-0.7554	1.4428
H	2.5645	-2.5425	-1.1250
H	3.9071	-4.3003	-0.0705
H	6.0567	-5.0086	0.2308
H	7.5706	-6.7168	1.0805
H	6.9722	-5.2881	5.0726
H	5.2182	-1.4830	2.9133
H	3.8018	0.2306	1.9014
X	2.1117	2.0053	0.6296
X	1.1383	-0.4660	-2.1595
X	8.9256	-7.1850	5.7493
X	9.2444	-8.5250	2.1593
X	6.3341	-2.6046	6.1968
X	2.9320	-3.3271	4.5438
0	1	S
1	2	S
1	3	S
3	4	D
3	20	S
4	5	S
4	21	S
5	6	D
5	22	S
6	7	S
6	19	S
7	8	D
7	15	S
8	9	S
8	23	S
9	10	D
9	24	S
10	11	S
10	14	S
11	12	S
11	13	S
14	15	D
14	25	S
15	16	S
16	17	S
16	18	S
19	20	D
19	26	S
20	27	S
28	0	S
29	2	S
30	12	S
31	13	S
32	17	S
33	18	S
