26
22	23	24	25
C	2.9253	0.0791	0.0063
C	1.4244	-0.0033	0.0043
C	0.6901	1.2072	0.0040
C	-0.7249	1.2718	0.0012
C	-1.3644	2.6641	0.0082
O	-2.5677	2.7974	-0.3887
O	-0.6391	3.6378	0.4024
C	-1.4162	0.0433	-0.0042
C	-2.9114	-0.1180	-0.0008
C	-0.6747	-1.1678	0.0002
C	0.7359	-1.2307	0.0055
C	1.4112	-2.6071	0.0132
O	0.6490	-3.6329	0.0153
O	2.6835	-2.6753	0.0171
H	3.2717	1.1184	-0.0031
H	3.3380	-0.3986	-0.8879
H	3.3346	-0.3830	0.9103
H	1.2359	2.1518	0.0046
H	-3.4837	0.8060	0.0164
H	-3.2163	-0.6885	0.8844
H	-3.2199	-0.6742	-0.8934
H	-1.2210	-2.1124	0.0020
X	-3.4177	2.8916	-0.6691
X	-0.1277	4.3243	0.6803
X	0.1122	-4.3553	0.0168
X	3.5822	-2.7235	0.0199
0	1	S
0	14	S
0	15	S
0	16	S
1	2	D
1	10	S
2	3	S
2	17	S
3	4	S
3	7	D
4	5	S
4	6	S
7	8	S
7	9	S
8	18	S
8	19	S
8	20	S
9	10	D
9	21	S
10	11	S
11	12	S
11	13	S
22	5	S
23	6	S
24	12	S
25	13	S
