26
21	22	23	24	25
C	1.1056	-0.3380	-0.1729
C	2.5646	0.0855	-0.0944
C	3.0347	0.6776	-1.3932
C	3.5987	-0.0833	-2.3807
N	4.0030	0.4123	-3.5718
C	3.8370	1.7638	-3.8593
C	4.3181	2.1617	-5.2948
O	3.6999	3.0610	-5.9570
O	5.2448	1.4366	-5.8103
C	3.2587	2.6228	-2.9005
C	3.0150	4.1317	-2.9913
O	2.1864	4.6047	-2.1405
O	3.7043	4.8510	-3.7700
C	2.8746	2.0325	-1.6646
H	0.7861	-0.7705	0.7805
H	0.9491	-1.0884	-0.9551
H	0.4540	0.5154	-0.3922
H	3.1876	-0.7787	0.1663
H	2.6959	0.8122	0.7147
H	3.7485	-1.1465	-2.2715
H	2.4403	2.6775	-0.9029
X	4.3779	-0.1504	-4.1658
X	3.2640	3.6951	-6.4239
X	5.8940	0.9286	-6.1715
X	1.6030	4.9377	-1.5415
X	4.1949	5.3630	-4.3242
0	1	S
0	14	S
0	15	S
0	16	S
1	2	S
1	17	S
1	18	S
2	3	D
2	13	S
3	4	S
3	19	S
4	5	S
5	6	S
5	9	S
6	7	S
6	8	S
9	10	S
9	13	D
10	11	S
10	12	S
13	20	S
4	21	S
22	7	S
23	8	S
24	11	S
25	12	S
