23
19	20	21	22
O	5.4654	-1.3846	0.1927
C	4.7899	-0.3148	0.0742
O	4.6867	0.3893	-0.9832
C	4.0407	0.1780	1.2826
C	3.2782	1.3318	1.2287
S	2.5594	1.6469	2.7445
C	3.3218	0.2457	3.4001
C	3.1337	-0.1375	4.8091
C	3.2277	-1.4860	5.1695
C	3.0549	-1.8385	6.4988
N	2.8024	-0.9522	7.4856
C	2.7366	0.3453	7.1236
C	2.8916	0.7958	5.8222
N	4.0349	-0.4485	2.5390
H	3.1293	1.9754	0.3722
H	3.4355	-2.2470	4.4210
H	3.1167	-2.8769	6.8096
H	2.5540	1.0444	7.9344
H	2.8416	1.8593	5.6192
X	2.6843	-1.2124	8.3390
X	4.4457	-1.2156	2.7686
X	5.9438	-2.1423	0.2766
X	4.6138	0.8865	-1.7299
0	1	S
1	2	S
1	3	S
3	4	D
3	13	S
4	5	S
4	14	S
5	6	S
6	7	S
6	13	S
7	8	D
7	12	S
8	9	S
8	15	S
9	10	S
9	16	S
10	11	S
11	12	D
11	17	S
12	18	S
10	19	S
13	20	S
21	0	S
22	2	S
