27
22	23	24	25	26
O	3.4121	0.1667	0.8947
C	2.4297	0.2300	0.0851
O	1.2935	0.7395	0.2406
C	2.6897	-0.5329	-1.1861
N	2.1198	-0.3150	-2.4212
C	2.1365	-1.4899	-2.9813
C	1.4950	-1.7524	-4.2781
C	1.0910	-0.6684	-5.0583
C	0.3966	-0.9340	-6.2212
N	0.0893	-2.1810	-6.6437
C	0.4966	-3.2080	-5.8608
C	1.2058	-3.0513	-4.6844
N	2.7434	-2.5138	-2.2683
C	3.0827	-1.9350	-1.1423
C	3.7460	-2.6340	0.0256
O	3.5794	-3.8288	0.2137
O	4.6365	-1.9065	0.7223
H	1.2951	0.3527	-4.7524
H	0.0484	-0.1247	-6.8555
H	0.2065	-4.1940	-6.2082
H	1.4891	-3.9096	-4.0825
H	4.3303	-0.9519	0.8299
X	1.8008	0.4423	-2.7882
X	-0.3641	-2.3206	-7.4085
X	2.8871	-3.3742	-2.4900
X	4.1058	0.1220	1.4664
X	0.4786	1.1049	0.3521
0	1	S
1	2	S
1	3	S
3	4	S
3	13	S
4	5	S
5	6	S
5	12	S
6	7	D
6	11	S
7	8	S
7	17	S
8	9	S
8	18	S
9	10	S
10	11	D
10	19	S
11	20	S
12	13	S
13	14	S
14	15	D
14	16	S
16	21	S
4	22	S
9	23	S
12	24	S
25	0	S
26	2	S
