30
26	27	28	29
C	0.9532	-1.5329	1.6515
O	2.3298	-1.2787	1.8642
C	2.9921	-0.9036	0.7144
O	2.3926	-0.1169	-0.2503
C	2.5900	1.2586	0.0786
C	4.4575	-1.0712	0.7016
C	5.1397	-1.2844	1.9070
C	6.5367	-1.4286	1.9629
C	7.2158	-1.6325	3.3074
O	8.4809	-1.7467	3.3333
O	6.4653	-1.6692	4.3419
C	7.2532	-1.3717	0.7505
C	6.6049	-1.1721	-0.4895
C	7.3785	-1.1177	-1.7979
O	6.7065	-0.9049	-2.8629
O	8.6397	-1.2835	-1.7632
C	5.2009	-1.0206	-0.4864
H	0.5552	-1.9773	2.5693
H	0.8002	-2.2484	0.8368
H	0.4054	-0.6047	1.4618
H	2.0220	1.8620	-0.6358
H	3.6439	1.5447	-0.0016
H	2.2114	1.4828	1.0829
H	4.5856	-1.3306	2.8435
H	8.3385	-1.4831	0.7716
H	4.6968	-0.8679	-1.4394
X	9.3771	-1.8276	3.3516
X	5.9370	-1.6950	5.0701
X	6.2329	-0.7549	-3.6134
X	9.5317	-1.4008	-1.7387
0	1	S
0	17	S
0	18	S
0	19	S
1	2	S
2	3	S
2	5	S
3	4	S
4	20	S
4	21	S
4	22	S
5	6	D
5	16	S
6	7	S
6	23	S
7	8	S
7	11	D
8	9	S
8	10	S
11	12	S
11	24	S
12	13	S
12	16	D
13	14	S
13	15	S
16	25	S
26	9	S
27	10	S
28	14	S
29	15	S
