32
29	30	31
O	4.4308	0.4760	-1.6042
C	3.7116	-0.4704	-1.1444
O	2.6739	-0.9398	-1.7139
C	4.1135	-1.0624	0.1961
C	3.3751	-2.1018	0.7859
C	3.7314	-2.6302	2.0356
C	4.8667	-2.1645	2.6993
O	5.2942	-2.5913	3.9379
C	5.1248	-3.8970	4.3524
C	5.0538	-5.0033	3.5025
C	4.8751	-6.3042	4.0109
C	4.7286	-7.4824	3.0588
O	4.5709	-8.6440	3.5626
O	4.7759	-7.2374	1.8085
C	4.8418	-6.4722	5.4117
C	4.9850	-5.3835	6.2979
C	5.0174	-5.5787	7.8064
O	5.1686	-4.5358	8.5293
O	4.9013	-6.7591	8.2690
C	5.1149	-4.0968	5.7390
C	5.6014	-1.1196	2.1325
C	5.2309	-0.5767	0.8952
H	2.5109	-2.5069	0.2622
H	3.1178	-3.4184	2.4626
H	5.1275	-4.8826	2.4246
H	4.7155	-7.4761	5.8201
H	5.2196	-3.2437	6.4063
H	6.4681	-0.7257	2.6540
H	5.8142	0.2331	0.4626
X	3.3942	-0.0029	-2.2030
X	4.6131	-8.4114	2.3081
X	5.0430	-5.7327	8.9962
0	1	S
1	2	S
1	3	S
3	4	D
3	21	S
4	5	S
4	22	S
5	6	D
5	23	S
6	7	S
6	20	S
7	8	S
8	9	D
8	19	S
9	10	S
9	24	S
10	11	S
10	14	D
11	12	S
11	13	S
14	15	S
14	25	S
15	16	S
15	19	D
16	17	S
16	18	S
19	26	S
20	21	D
20	27	S
21	28	S
29	0	S
30	12	S
31	17	S
