32
26	27	28	29	30	31
O	1.6080	-1.5809	-0.4902
C	1.7882	-0.3312	-0.3319
O	1.3550	0.3600	0.6447
C	2.5793	0.3970	-1.4024
C	2.8094	1.7754	-1.3213
C	3.5108	2.4423	-2.3286
C	4.0341	1.7769	-3.4441
C	4.7069	2.5147	-4.5393
C	4.5817	2.0181	-5.8470
C	5.1065	2.6732	-6.9651
C	5.7875	3.8887	-6.8288
C	6.3343	4.6180	-8.0382
O	6.9390	5.7141	-7.8226
O	6.1463	4.0791	-9.1738
C	5.9485	4.4059	-5.5372
C	5.4235	3.7198	-4.4237
N	5.7136	4.3046	-3.1286
O	6.4928	3.6881	-2.3866
O	5.2085	5.4095	-2.8774
C	3.8133	0.3890	-3.5106
C	3.0969	-0.2866	-2.5110
H	2.4307	2.3368	-0.4698
H	4.9747	2.2366	-7.9531
H	6.4883	5.3443	-5.4090
H	4.1860	-0.1945	-4.3485
H	2.9280	-1.3592	-2.5972
X	1.4806	-2.4648	-0.6022
X	1.0486	0.8489	1.3354
X	7.3674	6.4907	-7.6698
X	6.0132	3.6975	-9.9779
X	7.0583	3.2407	-1.8481
X	4.8421	6.2111	-2.6952
0	1	S
1	2	S
1	3	S
3	4	D
3	20	S
4	5	S
4	21	S
5	6	D
6	7	S
6	19	S
7	8	D
7	15	S
8	9	S
9	10	D
9	22	S
10	11	S
10	14	S
11	12	S
11	13	S
14	15	D
14	23	S
15	16	S
16	17	S
16	18	S
19	20	D
19	24	S
20	25	S
26	0	S
27	2	S
28	12	S
29	13	S
30	17	S
31	18	S
