40
34	35	36	37	38	39
O	2.0197	-2.1968	-0.6837
C	1.7186	-0.9661	-0.5469
O	0.7538	-0.5313	0.1496
C	2.5939	0.0197	-1.3033
C	2.2704	1.3971	-1.3218
C	3.0422	2.3276	-2.0349
C	2.7791	3.8290	-2.0173
O	3.5461	4.5739	-2.7175
O	1.8246	4.2634	-1.2978
C	4.1566	1.8279	-2.7151
C	4.6244	0.4915	-2.5941
C	6.0227	0.2294	-3.0189
C	6.8995	1.3220	-2.8580
C	8.1021	1.3920	-3.5165
C	8.5390	0.2890	-4.1985
C	9.7258	0.4188	-4.8790
C	10.6956	-0.3886	-4.3455
C	11.9878	0.2764	-3.9125
O	12.7429	-0.3724	-3.1256
O	12.2150	1.4547	-4.3514
C	10.2937	-1.6934	-4.0186
C	8.9080	-2.0220	-3.9816
C	7.9647	-0.9635	-3.9468
C	6.6042	-0.9681	-3.4996
C	3.7848	-0.4156	-1.9431
H	1.4108	1.7569	-0.7609
H	4.7354	2.5568	-3.2893
H	6.6131	2.1766	-2.2496
H	8.7186	2.2813	-3.4339
H	9.5917	0.1876	-5.9576
H	11.0451	-2.3910	-3.6532
H	8.6016	-3.0240	-3.7034
H	6.0452	-1.9007	-3.4511
H	4.0656	-1.4648	-1.8651
X	2.2323	-3.0660	-0.7803
X	0.0684	-0.2224	0.6444
X	4.0862	5.0985	-3.2106
X	1.1491	4.5708	-0.7886
X	13.2784	-0.8325	-2.5675
X	12.3750	2.2847	-4.6605
0	1	S
1	2	S
1	3	S
3	4	D
3	24	S
4	5	S
4	25	S
5	6	S
5	9	D
6	7	S
6	8	S
9	10	S
9	26	S
10	11	S
10	24	D
11	12	D
11	23	S
12	13	S
12	27	S
13	14	D
13	28	S
14	15	S
14	22	S
15	16	D
15	29	S
16	17	S
16	20	S
17	18	S
17	19	S
20	21	D
20	30	S
21	22	S
21	31	S
22	23	D
23	32	S
24	33	S
34	0	S
35	2	S
36	7	S
37	8	S
38	18	S
39	19	S
