19
15	16	17	18
O	1.2567	-0.6469	-0.0419
C	2.2748	0.0917	0.0836
O	2.7485	0.9415	-0.7256
C	3.0562	-0.0674	1.4100
C	4.1580	0.6676	1.6599
C	4.8594	0.4500	2.9339
N	5.9159	1.0129	3.4284
N	6.1247	0.3620	4.7015
N	5.2428	-0.5244	4.9222
C	4.3827	-0.5503	3.8745
C	3.2918	-1.2805	3.6322
C	2.5777	-1.0226	2.3993
H	4.5509	1.3970	0.9630
H	2.9254	-2.0284	4.3213
H	1.6134	-1.4974	2.2354
X	6.3720	1.6660	3.0095
X	6.7647	0.5002	5.3190
X	5.2300	-1.0296	5.6669
X	1.6689	0.2151	-0.9448
0	1	S
1	2	S
1	3	S
3	4	D
3	11	S
4	5	S
4	12	S
5	6	S
5	9	S
6	7	S
7	8	S
8	9	S
9	10	D
10	11	S
10	13	S
11	14	S
6	15	S
7	16	S
8	17	S
18	0	S
