34
26	27	28	29	30	31	32	33
O	1.3344	0.5934	-0.3124
C	2.1820	-0.2218	0.1903
O	2.1423	-1.4909	0.0085
C	3.0544	0.2828	1.3348
C	2.6847	-0.2944	2.5656
C	3.2360	0.1261	3.7584
C	4.2346	1.1095	3.7945
C	4.4885	1.6667	5.2036
O	4.5021	2.9357	5.3627
O	4.4251	0.8382	6.1866
C	4.7962	1.6152	2.5603
C	5.9823	2.4408	2.5118
C	7.0393	2.5877	3.6187
O	7.6886	3.6998	3.6693
O	7.3925	1.5482	4.2695
C	6.3444	3.0714	1.3084
C	5.6479	2.8471	0.1411
C	4.5798	1.9321	0.0782
C	4.0745	1.7506	-1.3482
O	4.3160	0.6391	-1.9298
O	3.7068	2.8136	-1.9700
C	4.1202	1.2646	1.2817
H	1.8938	-1.0397	2.5787
H	2.8471	-0.2738	4.6909
H	7.2234	3.7110	1.2860
H	5.9707	3.3401	-0.7734
X	0.7379	1.1671	-0.6662
X	2.1144	-2.3814	-0.1191
X	4.5117	3.8287	5.4747
X	4.3808	0.2589	6.8739
X	8.1420	4.4764	3.7046
X	7.6416	0.8152	4.7284
X	4.4861	-0.1440	-2.3395
X	3.4493	3.5580	-2.4054
0	1	S
1	2	S
1	3	S
3	4	D
3	21	S
4	5	S
4	22	S
5	6	D
5	23	S
6	7	S
6	10	S
7	8	S
7	9	S
10	11	S
10	21	D
11	12	S
11	15	D
12	13	S
12	14	S
15	16	S
15	24	S
16	17	D
16	25	S
17	18	S
17	21	S
18	19	S
18	20	S
26	0	S
27	2	S
28	8	S
29	9	S
30	13	S
31	14	S
32	19	S
33	20	S
