38
34	35	36	37
C	1.8092	0.5244	-0.7613
S	3.1867	0.0267	0.3037
C	3.1926	1.3232	1.4243
C	2.2748	1.6845	2.3522
C	0.8743	1.1716	2.7409
O	0.5646	0.0147	2.3402
O	0.1458	1.9774	3.4017
C	2.7095	2.9523	2.9973
S	3.4160	2.6580	4.6244
C	2.2902	3.6229	5.6369
C	3.5708	3.5345	2.1204
C	3.2410	4.4734	1.0289
S	1.9737	5.6232	1.1321
C	0.6564	4.6852	0.3088
C	3.9953	4.1241	-0.0361
C	4.0194	4.5756	-1.5074
O	3.4899	5.6926	-1.7710
O	4.5473	3.7667	-2.3335
C	4.8143	2.9344	0.3158
S	6.5499	3.3103	0.5103
C	7.2391	2.1786	-0.7040
C	4.2308	2.3805	1.4107
H	1.9563	0.0889	-1.7545
H	1.7460	1.6105	-0.8757
H	0.8624	0.1478	-0.3663
H	2.6253	3.5545	6.6770
H	1.2708	3.2372	5.5817
H	2.3111	4.6743	5.3413
H	-0.2303	5.3190	0.2141
H	0.3804	3.8038	0.8943
H	0.9555	4.3677	-0.6944
H	8.3296	2.2711	-0.6827
H	6.8948	2.4209	-1.7109
H	6.9801	1.1455	-0.4599
X	0.3439	-0.8098	2.0546
X	-0.3699	2.5478	3.8694
X	3.1129	6.4880	-1.9587
X	4.9211	3.1939	-2.9185
0	1	S
0	22	S
0	23	S
0	24	S
1	2	S
2	3	D
2	21	S
3	4	S
3	7	S
4	5	S
4	6	S
7	8	S
7	10	D
8	9	S
9	25	S
9	26	S
9	27	S
10	11	S
10	21	S
11	12	S
11	14	D
12	13	S
13	28	S
13	29	S
13	30	S
14	15	S
14	18	S
15	16	S
15	17	S
18	19	S
18	21	D
19	20	S
20	31	S
20	32	S
20	33	S
34	5	S
35	6	S
36	16	S
37	17	S
