18
12	13	14	15	16	17
O	2.6769	-0.6843	-0.9631
C	2.1189	-0.1375	0.0425
O	0.9224	-0.4045	0.4194
C	2.9210	0.7891	0.9346
N	2.5505	1.0425	2.2821
C	3.5295	1.7383	2.8032
N	4.5100	1.9587	1.8954
C	4.1126	1.4594	0.6814
C	4.9247	1.7561	-0.5014
O	6.0832	2.2149	-0.1991
O	4.4472	1.6930	-1.6680
H	3.5790	2.0977	3.8189
X	3.7455	1.4926	1.8044
X	1.8113	0.8002	2.7348
X	3.0713	-1.0708	-1.6738
X	0.0828	-0.5919	0.6839
X	6.8964	2.5369	0.0131
X	4.1067	1.6480	-2.4999
0	1	S
1	2	S
1	3	S
3	4	S
3	7	D
4	5	S
5	6	S
5	11	S
6	7	S
7	8	S
8	9	S
8	10	S
6	12	S
4	13	S
14	0	S
15	2	S
16	9	S
17	10	S
