35
32	33	34
O	1.2735	-2.9229	1.5353
C	1.3114	-2.5554	0.3153
O	0.2793	-2.2974	-0.3872
C	2.6801	-2.4267	-0.3407
C	2.8199	-2.0210	-1.6858
C	4.0839	-1.8863	-2.2997
C	4.2219	-1.4985	-3.7648
O	5.3962	-1.4976	-4.2634
O	3.1655	-1.2181	-4.4182
C	5.2302	-2.1598	-1.5251
C	5.1270	-2.6422	-0.2152
C	6.3134	-3.0942	0.5880
O	6.3231	-2.8374	1.7936
N	7.2982	-3.8830	-0.0042
C	7.3688	-4.3565	-1.3722
C	7.8462	-5.7876	-1.2301
C	8.8105	-5.7387	-0.0530
C	8.3311	-4.5609	0.8170
C	9.6427	-3.8006	1.1847
O	10.0456	-2.9102	0.3791
O	10.2520	-4.2621	2.2040
C	3.8541	-2.7373	0.3772
H	1.9225	-1.8086	-2.2695
H	6.2095	-2.0207	-1.9784
H	8.1108	-3.7428	-1.8979
H	6.4194	-4.3275	-1.9037
H	8.3102	-6.1680	-2.1449
H	6.9977	-6.4367	-0.9843
H	9.8349	-5.6084	-0.4225
H	8.7882	-6.6810	0.5062
H	7.8540	-4.9216	1.7364
H	3.7658	-3.0759	1.4087
X	0.2331	-2.6568	0.8321
X	4.3307	-1.1927	-4.9201
X	10.6516	-3.2157	1.4675
0	1	S
1	2	S
1	3	S
3	4	D
3	21	S
4	5	S
4	22	S
5	6	S
5	9	D
6	7	S
6	8	S
9	10	S
9	23	S
10	11	S
10	21	D
11	12	D
11	13	S
13	14	S
13	17	S
14	15	S
14	24	S
14	25	S
15	16	S
15	26	S
15	27	S
16	17	S
16	28	S
16	29	S
17	18	S
17	30	S
18	19	S
18	20	S
21	31	S
32	0	S
33	7	S
34	19	S
