32
29	30	31
O	3.2051	-0.2811	-2.2802
C	4.2301	-0.1286	-1.5421
O	4.9985	0.8918	-1.5646
C	4.5577	-1.2225	-0.5412
C	3.7566	-2.3708	-0.4269
C	4.0459	-3.3705	0.5147
C	5.1776	-3.2671	1.3247
C	5.9727	-2.1217	1.2354
C	5.6689	-1.1137	0.3113
O	5.5454	-4.1772	2.2923
C	5.3298	-5.5313	2.1261
C	5.2751	-6.1872	0.8947
C	5.0360	-7.5725	0.8158
C	4.9252	-8.2983	2.0231
C	5.0506	-7.6755	3.2827
C	5.2441	-6.2808	3.3073
C	4.9914	-8.4698	4.5791
O	5.1370	-7.8231	5.6706
O	4.8082	-9.7290	4.5135
C	4.9019	-8.2518	-0.5398
O	4.6765	-9.5040	-0.5662
O	5.0207	-7.5196	-1.5773
H	2.8964	-2.4893	-1.0834
H	3.3861	-4.2306	0.5853
H	6.8363	-2.0145	1.8833
H	6.3017	-0.2312	0.2455
H	5.4066	-5.6381	-0.0346
H	4.7492	-9.3740	1.9777
H	5.3348	-5.7804	4.2695
X	3.9712	0.7359	-2.3331
X	4.9447	-9.0962	5.6015
X	4.7962	-8.7873	-1.6085
0	1	S
1	2	S
1	3	S
3	4	D
3	8	S
4	5	S
4	22	S
5	6	D
5	23	S
6	7	S
6	9	S
7	8	D
7	24	S
8	25	S
9	10	S
10	11	D
10	15	S
11	12	S
11	26	S
12	13	D
12	19	S
13	14	S
13	27	S
14	15	D
14	16	S
15	28	S
16	17	S
16	18	S
19	20	S
19	21	S
29	0	S
30	17	S
31	20	S
