44
34	35	36	37	38	39	40	41	42	43
O	2.4703	-1.0640	0.6941
C	2.1010	-0.0177	0.0689
O	1.0354	0.6243	0.3201
C	2.9461	0.4443	-1.0959
C	2.7046	1.7466	-1.6033
C	3.3826	2.2944	-2.7169
C	2.9885	3.7042	-3.0420
O	2.7997	4.5020	-2.1261
N	2.7453	4.0041	-4.3607
N	2.5113	5.2854	-4.7158
C	3.0843	5.9403	-5.7575
N	2.4707	7.0955	-5.9315
N	1.4606	7.1794	-4.9873
C	1.4935	6.0715	-4.2736
C	4.3543	1.5214	-3.3680
C	5.1068	1.9441	-4.6041
O	6.2794	1.4897	-4.7666
O	4.4962	2.6947	-5.4330
C	4.6416	0.2439	-2.8250
C	3.9566	-0.3139	-1.7163
C	4.3780	-1.7249	-1.3879
O	5.5394	-2.0783	-1.5925
N	3.3859	-2.5940	-0.9897
N	3.7198	-3.8610	-0.6503
C	3.1653	-4.5629	0.3727
N	3.5133	-5.8314	0.2666
N	4.2877	-5.9577	-0.8746
C	4.3811	-4.7631	-1.4237
H	1.9402	2.3526	-1.1093
H	3.8994	5.5396	-6.3431
H	0.8424	5.7990	-3.4571
H	5.4200	-0.3480	-3.3142
H	2.7467	-2.1653	-0.3064
H	4.8951	-4.5029	-2.3371
X	2.2757	4.4799	-3.7581
X	3.6675	-2.0928	-1.6821
X	2.6939	7.6987	-6.5611
X	0.8741	7.8496	-4.8577
X	3.2734	-6.4742	0.8491
X	4.6708	-6.7008	-1.2077
X	2.7313	-1.8034	1.1359
X	0.2798	1.0796	0.4982
X	7.1117	1.1672	-4.8819
X	4.0649	3.2249	-6.0185
0	1	S
1	2	S
1	3	S
3	4	D
3	19	S
4	5	S
4	28	S
5	6	S
5	14	D
6	7	D
6	8	S
8	9	S
9	10	S
9	13	S
10	11	S
10	29	S
11	12	S
12	13	S
13	30	S
14	15	S
14	18	S
15	16	S
15	17	S
18	19	D
18	31	S
19	20	S
20	21	D
20	22	S
22	23	S
22	32	S
23	24	S
23	27	S
24	25	S
25	26	S
26	27	S
27	33	S
8	34	S
22	35	S
11	36	S
12	37	S
25	38	S
26	39	S
40	0	S
41	2	S
42	16	S
43	17	S
