41
33	34	35	36	37	38	39	40
C	1.3863	0.3747	0.1395
C	2.8642	0.2344	0.1376
N	3.4682	-0.9277	-0.0026
N	4.7973	-0.7028	-0.1376
C	5.0255	0.6002	-0.0395
C	6.3744	1.1503	-0.0139
C	7.4010	0.5573	-0.7466
N	8.6896	0.9888	-0.7158
C	8.8952	2.0771	0.0600
C	7.8829	2.6674	0.8008
N	6.6183	2.1889	0.8167
N	3.8051	1.2702	0.1038
C	3.5404	2.6739	0.1141
C	4.3198	3.5569	-0.6436
C	4.0564	4.9433	-0.6658
C	4.9432	5.8687	-1.4866
O	4.6758	7.1117	-1.4950
O	5.9113	5.3299	-2.1201
C	2.9641	5.4288	0.0827
C	2.1586	4.5672	0.8516
C	0.9724	5.0713	1.6607
O	0.2902	4.1918	2.2869
O	0.7237	6.3181	1.6604
C	2.4777	3.1940	0.8631
H	0.9268	-0.6122	0.0076
H	1.0460	1.0037	-0.6879
H	1.0083	0.7594	1.0877
H	7.2111	-0.2991	-1.3858
H	9.9053	2.4681	0.0748
H	8.0604	3.5496	1.4051
H	5.1408	3.2046	-1.2626
H	2.7415	6.4970	0.0706
H	1.8878	2.5697	1.5260
X	3.0512	-1.7253	-0.0056
X	5.4331	-1.3254	-0.2722
X	9.3529	0.5865	-1.1721
X	5.9801	2.5391	1.3460
X	4.4865	7.9916	-1.5009
X	6.5940	4.9499	-2.5668
X	-0.1906	3.5720	2.7282
X	0.5476	7.2007	1.6602
0	1	S
0	24	S
0	25	S
0	26	S
1	2	S
1	11	S
2	3	S
3	4	S
4	5	S
4	11	S
5	6	D
5	10	S
6	7	S
6	27	S
7	8	S
8	9	S
8	28	S
9	10	S
9	29	S
11	12	S
12	13	D
12	23	S
13	14	S
13	30	S
14	15	S
14	18	D
15	16	S
15	17	S
18	19	S
18	31	S
19	20	S
19	23	D
20	21	S
20	22	S
23	32	S
2	33	S
3	34	S
7	35	S
10	36	S
37	16	S
38	17	S
39	21	S
40	22	S
