28
20	21	22	23	24	25	26	27
O	2.9481	-0.9608	0.5807
C	2.2906	-0.0565	-0.0447
O	1.0240	0.1115	0.1206
C	3.0438	1.0444	-0.7970
C	2.5934	2.3610	-0.5942
C	3.2031	3.4454	-1.2236
C	4.3770	3.2944	-1.9819
C	4.8804	4.5632	-2.6637
O	4.7848	4.6624	-3.9399
O	5.0952	5.5811	-1.9072
C	4.9611	1.9918	-2.0748
C	6.4705	1.8666	-2.3296
O	7.1870	1.3442	-1.3972
O	6.9911	2.4396	-3.3483
C	4.1784	0.8397	-1.6474
C	4.3587	-0.5324	-2.3298
O	5.5053	-0.9282	-2.7290
O	3.2883	-1.1925	-2.6084
H	1.7253	2.5281	0.0349
H	2.7864	4.4397	-1.1019
X	3.4100	-1.5961	1.0201
X	0.1392	0.2289	0.2361
X	4.7178	4.7320	-4.8347
X	5.2455	6.2933	-1.3779
X	7.6882	0.9788	-0.7450
X	7.3573	2.8427	-4.0649
X	6.3134	-1.2072	-3.0103
X	2.5404	-1.6537	-2.8031
0	1	S
1	2	S
1	3	S
3	4	D
3	14	S
4	5	S
4	18	S
5	6	D
5	19	S
6	7	S
6	10	S
7	8	S
7	9	S
10	11	S
10	14	D
11	12	S
11	13	S
14	15	S
15	16	S
15	17	S
20	0	S
21	2	S
22	8	S
23	9	S
24	12	S
25	13	S
26	16	S
27	17	S
