19
15	16	17	18
O	1.4734	-0.4053	0.6955
C	2.4394	0.0066	-0.0091
O	2.8446	-0.4153	-1.1307
C	3.2410	1.1912	0.5823
C	4.2919	1.7164	-0.0769
C	5.0124	2.8349	0.5496
N	6.0343	3.5198	0.1441
N	6.2855	4.4761	1.1984
N	5.4582	4.3454	2.1527
C	4.6008	3.3388	1.8486
C	3.5603	2.8232	2.5060
C	2.8395	1.7404	1.8702
H	4.6282	1.3493	-1.0381
H	3.2425	3.1876	3.4729
H	1.9425	1.3495	2.3434
X	6.4489	3.3738	-0.6412
X	6.9180	5.1136	1.2571
X	5.4759	4.8595	2.8912
X	1.8179	-0.9118	-0.4676
0	1	S
1	2	S
1	3	S
3	4	D
3	11	S
4	5	S
4	12	S
5	6	S
5	9	S
6	7	S
7	8	S
8	9	S
9	10	D
10	11	S
10	13	S
11	14	S
6	15	S
7	16	S
8	17	S
18	0	S
