32
28	29	30	31
O	3.8772	0.6680	0.7879
S	2.7328	0.1252	0.0567
O	1.5773	-0.1417	0.9194
O	2.3733	0.8208	-1.1782
C	3.3108	-1.5309	-0.5118
C	2.5839	-2.6364	-0.0246
C	2.9183	-3.9451	-0.3851
C	2.1198	-5.1268	0.1597
O	2.4660	-6.3082	-0.1734
O	1.1324	-4.8788	0.9335
C	4.0095	-4.1081	-1.2664
C	4.7785	-3.0212	-1.8051
C	5.8772	-3.1773	-2.7192
S	6.4153	-4.8289	-3.3374
O	6.8180	-5.5477	-2.1289
O	5.2353	-5.3509	-4.0278
O	7.5374	-4.5585	-4.2422
C	6.6006	-2.0710	-3.2102
C	6.2848	-0.7645	-2.8261
C	7.0829	0.4182	-3.3692
O	6.7771	1.5946	-2.9842
O	8.0319	0.1752	-4.1914
C	5.2044	-0.6031	-1.9312
C	4.4246	-1.6890	-1.4067
H	1.7417	-2.4783	0.6465
H	4.2658	-5.1324	-1.5440
H	7.4235	-2.2266	-3.9058
H	4.9627	0.4195	-1.6352
X	2.7103	-7.1419	-0.4085
X	0.4375	-4.7043	1.4781
X	6.5612	2.4250	-2.7124
X	8.6997	0.0042	-4.7700
0	1	S
1	2	S
1	3	S
1	4	S
4	5	D
4	23	S
5	6	S
5	24	S
6	7	S
6	10	D
7	8	S
7	9	S
10	11	S
10	25	S
11	12	S
11	23	D
12	13	S
12	17	D
13	14	S
13	15	S
13	16	S
17	18	S
17	26	S
18	19	S
18	22	D
19	20	S
19	21	S
22	23	S
22	27	S
28	8	S
29	9	S
30	20	S
31	21	S
