28
24	25	26	27
O	4.3202	3.0688	-0.6369
C	4.0483	1.8906	-0.2561
O	3.2229	1.5163	0.6215
C	4.8353	0.7976	-0.9877
C	4.5203	-0.6446	-0.5966
C	5.3088	-1.6790	-1.4117
C	6.8333	-1.6241	-1.2544
C	7.3554	-1.8246	0.1738
C	7.0187	-3.1853	0.7803
C	7.6569	-4.4002	0.0998
O	8.8046	-4.2281	-0.3965
O	6.9662	-5.4613	0.1515
H	5.8968	1.0054	-0.8157
H	4.6484	0.9247	-2.0624
H	3.4506	-0.8322	-0.7545
H	4.6973	-0.7934	0.4746
H	5.0695	-1.5473	-2.4744
H	4.9515	-2.6815	-1.1485
H	7.2032	-0.6626	-1.6286
H	7.2753	-2.3837	-1.9096
H	6.9621	-1.0349	0.8247
H	8.4439	-1.6877	0.1652
H	5.9312	-3.3164	0.8291
H	7.3726	-3.1948	1.8199
X	4.5132	3.9053	-0.9072
X	2.6341	1.2493	1.2476
X	9.6230	-4.1054	-0.7504
X	6.4756	-6.2150	0.1882
0	1	S
1	2	S
1	3	S
3	4	S
3	12	S
3	13	S
4	5	S
4	14	S
4	15	S
5	6	S
5	16	S
5	17	S
6	7	S
6	18	S
6	19	S
7	8	S
7	20	S
7	21	S
8	9	S
8	22	S
8	23	S
9	10	S
9	11	S
24	0	S
25	2	S
26	10	S
27	11	S
