37
29	30	31	32	33	34	35	36
O	3.9304	-0.9646	-0.7955
C	3.2370	-0.7828	0.2616
O	2.2941	-1.5698	0.6297
C	3.5435	0.4324	1.1789
C	3.0705	0.3951	2.5016
C	3.3183	1.4480	3.3945
C	2.8324	1.4312	4.8027
C	2.6970	0.2338	5.5314
C	2.2431	0.2361	6.8628
C	2.1241	-1.1117	7.6108
O	1.4065	-1.1225	8.6686
O	2.7505	-2.1176	7.1461
N	1.9144	1.4051	7.5014
C	2.0542	2.5522	6.7854
C	1.6896	3.8013	7.5251
O	1.7399	4.9379	7.0820
O	1.2819	3.5131	8.7930
C	2.4932	2.6137	5.4733
C	4.0515	2.5312	2.8868
C	4.4992	2.5635	1.5573
C	5.2730	3.8265	1.0845
O	5.6721	3.9124	-0.1249
O	5.4685	4.7500	1.9549
N	4.2478	1.5145	0.7147
H	2.5003	-0.4780	2.8117
H	2.9535	-0.7235	5.0760
H	1.3236	2.5247	8.8980
H	2.5656	3.5825	4.9817
H	4.3012	3.3776	3.5212
X	1.6203	1.4188	8.3519
X	4.5424	1.5360	-0.1354
X	4.4190	-1.0927	-1.5404
X	1.6322	-2.1222	0.8881
X	0.9013	-1.1301	9.4134
X	3.1934	-2.8288	6.8175
X	5.9535	3.9730	-0.9776
X	5.6055	5.3973	2.5650
0	1	S
1	2	S
1	3	S
3	4	D
3	23	S
4	5	S
4	24	S
5	6	S
5	18	D
6	7	D
6	17	S
7	8	S
7	25	S
8	9	S
8	12	S
9	10	S
9	11	S
12	13	S
13	14	S
13	17	D
14	15	D
14	16	S
16	26	S
17	27	S
18	19	S
18	28	S
19	20	S
19	23	S
20	21	S
20	22	S
12	29	S
23	30	S
31	0	S
32	2	S
33	10	S
34	11	S
35	21	S
36	22	S
