34
26	27	28	29	30	31	32	33
O	2.8130	0.9371	-0.6765
C	2.3109	0.1860	0.2183
O	1.1970	0.3816	0.8011
C	3.0965	-1.0251	0.6242
C	2.6331	-1.8675	1.6382
C	3.3620	-2.9940	2.0199
C	4.5641	-3.3092	1.3849
C	5.2774	-4.5044	1.7642
C	6.1926	-5.1870	0.9942
N	6.4949	-6.3104	1.7358
C	7.3041	-7.3872	1.3466
C	7.9334	-7.3545	0.1043
C	8.7307	-8.4215	-0.3205
C	9.4191	-8.3416	-1.6570
O	10.1676	-9.3078	-2.0114
O	9.2113	-7.2953	-2.3519
C	8.8659	-9.5332	0.5297
C	8.2319	-9.5844	1.7854
C	8.3663	-10.7753	2.6985
O	7.7989	-10.7037	3.8381
O	9.0322	-11.7786	2.2892
C	7.4537	-8.4906	2.1839
N	5.8541	-6.2550	2.9328
N	5.0943	-5.1661	2.9480
C	5.0330	-2.4734	0.3714
C	4.3083	-1.3386	0.0006
X	5.9221	-6.8458	3.6083
X	4.5586	-4.9234	3.6292
X	3.1684	1.4687	-1.3098
X	0.4090	0.5200	1.2134
X	10.6970	-9.9911	-2.2620
X	9.0644	-6.5556	-2.8431
X	7.3984	-10.6532	4.6425
X	9.5034	-12.4886	1.9996
0	1	S
1	2	S
1	3	S
3	4	D
3	25	S
4	5	S
5	6	D
6	7	S
6	24	S
7	8	D
7	23	S
8	9	S
9	10	S
9	22	S
10	11	D
10	21	S
11	12	S
12	13	S
12	16	D
13	14	S
13	15	S
16	17	S
17	18	S
17	21	D
18	19	S
18	20	S
22	23	S
24	25	D
22	26	S
23	27	S
28	0	S
29	2	S
30	14	S
31	15	S
32	19	S
33	20	S
