18
15	16	17
O	1.2713	-0.4479	0.3568
C	2.3485	0.0610	-0.0880
O	2.8749	-0.2255	-1.2149
C	3.0645	1.0750	0.7640
C	4.2352	1.6679	0.3025
N	4.9643	2.5913	0.9825
C	4.4872	2.9334	2.2080
C	3.3346	2.4148	2.7906
C	2.9181	2.8642	4.1659
O	1.8555	2.3735	4.6635
O	3.6669	3.7159	4.7508
C	2.6165	1.4707	2.0363
H	4.6352	1.4002	-0.6725
H	5.0848	3.6701	2.7395
H	1.7044	1.0370	2.4451
X	5.7151	2.9531	0.6429
X	1.7778	-0.7472	-0.7671
X	2.5861	3.2224	5.2620
0	1	S
1	2	S
1	3	S
3	4	D
3	11	S
4	5	S
4	12	S
5	6	S
6	7	S
6	13	S
7	8	S
7	11	D
8	9	S
8	10	S
11	14	S
5	15	S
16	0	S
17	9	S
