35
32	33	34
O	1.3563	0.1272	0.6179
C	2.5125	0.0619	0.1975
N	3.2455	1.2173	-0.0951
C	4.6529	1.3088	-0.4309
C	5.1044	2.6220	0.1707
C	3.8905	3.5248	0.0323
C	2.6740	2.5784	0.0722
C	1.7382	3.1802	-1.0218
O	1.8376	2.7217	-2.1971
O	1.0584	4.1869	-0.6330
C	3.1619	-1.3002	0.1089
C	4.1498	-1.6088	-0.8357
C	4.8819	-2.8123	-0.7901
C	4.4948	-3.7820	0.1550
C	3.4224	-3.5658	1.0497
C	2.7819	-2.3041	1.0214
C	2.9825	-4.6511	2.0265
O	2.0079	-4.3849	2.8061
O	3.6077	-5.7615	2.0177
C	6.0785	-3.0122	-1.7073
O	6.6553	-4.1464	-1.7114
O	6.4567	-2.0154	-2.4075
H	4.7339	1.3326	-1.5239
H	5.2451	0.4896	-0.0214
H	5.9902	3.0216	-0.3315
H	5.3462	2.4835	1.2307
H	3.9651	4.0844	-0.9090
H	3.8542	4.2616	0.8416
H	2.1707	2.6164	1.0455
H	4.3974	-0.9002	-1.6208
H	5.0376	-4.7271	0.1969
H	1.9809	-2.1092	1.7334
X	1.0185	3.6430	-1.8631
X	2.6363	-5.5051	2.7951
X	7.0226	-3.1699	-2.4310
0	1	D
1	2	S
1	10	S
2	3	S
2	6	S
3	4	S
3	22	S
3	23	S
4	5	S
4	24	S
4	25	S
5	6	S
5	26	S
5	27	S
6	7	S
6	28	S
7	8	S
7	9	S
10	11	D
10	15	S
11	12	S
11	29	S
12	13	D
12	19	S
13	14	S
13	30	S
14	15	D
14	16	S
15	31	S
16	17	S
16	18	S
19	20	S
19	21	S
32	8	S
33	17	S
34	20	S
