41
33	34	35	36	37	38	39	40
O	2.0630	0.9671	0.8943
C	2.0795	0.0984	-0.0389
O	1.2639	-0.8838	-0.1211
C	2.9699	0.3437	-1.2493
C	2.3972	0.1156	-2.5286
C	3.0841	0.3923	-3.7103
C	4.3683	0.9273	-3.6441
S	5.2625	1.2471	-5.1559
O	6.5850	1.7369	-4.8035
O	5.1402	0.0251	-5.9434
C	4.4777	2.5517	-6.0817
C	3.6355	3.4639	-5.4566
C	2.9872	4.4295	-6.2332
C	3.1785	4.5264	-7.6344
C	2.3009	5.5115	-8.3901
O	1.6565	5.0866	-9.4047
O	2.1085	6.6510	-7.8369
C	4.1108	3.6588	-8.2528
C	4.5690	3.7986	-9.6971
O	4.8419	2.7130	-10.3198
O	4.8255	4.9632	-10.1432
C	4.7170	2.6480	-7.4616
C	4.9725	1.1303	-2.3966
C	4.3020	0.8231	-1.1862
C	5.1013	0.9509	0.1008
O	5.8540	1.9811	0.2038
O	5.1305	-0.0452	0.8939
H	1.3860	-0.2840	-2.5761
H	2.6157	0.1844	-4.6715
H	3.4595	3.4419	-4.3855
H	2.2998	5.1270	-5.7560
H	5.4009	1.9524	-7.9464
H	5.9939	1.5110	-2.3370
X	2.0514	1.5803	1.5530
X	0.6901	-1.5748	-0.1789
X	1.2016	4.7866	-10.1210
X	1.9733	7.4515	-7.4483
X	5.0336	1.9502	-10.7573
X	5.0068	5.7864	-10.4585
X	6.3832	2.7054	0.2762
X	5.1511	-0.7491	1.4543
0	1	S
1	2	S
1	3	S
3	4	D
3	23	S
4	5	S
4	27	S
5	6	D
5	28	S
6	7	S
6	22	S
7	8	D
7	9	D
7	10	S
10	11	D
10	21	S
11	12	S
11	29	S
12	13	D
12	30	S
13	14	S
13	17	S
14	15	S
14	16	S
17	18	S
17	21	D
18	19	S
18	20	S
21	31	S
22	23	D
22	32	S
23	24	S
24	25	S
24	26	S
33	0	S
34	2	S
35	15	S
36	16	S
37	19	S
38	20	S
39	25	S
40	26	S
