35
31	32	33	34
O	2.1568	-1.1522	-2.7418
C	1.7000	-2.1458	-2.0819
O	0.5449	-2.6520	-2.2439
C	2.6252	-2.7694	-1.0503
C	2.2723	-3.9296	-0.3273
C	3.1513	-4.5138	0.6092
C	2.8606	-5.8455	1.2856
O	3.7017	-6.2566	2.1553
O	1.8299	-6.4932	0.9187
C	4.4040	-3.9149	0.8005
C	4.8633	-2.9291	-0.0840
N	6.2846	-2.9181	-0.4694
C	6.4225	-3.2389	-1.9093
C	6.4732	-4.7311	-1.9018
C	5.8852	-5.6380	-2.7626
C	5.7920	-6.9687	-2.3407
C	6.2973	-7.3696	-1.0874
C	6.8980	-6.4455	-0.2279
C	6.9664	-5.1354	-0.6615
C	7.0799	-3.9109	0.1736
O	7.7031	-3.8296	1.2140
C	3.9295	-2.2659	-0.8911
H	1.3132	-4.4097	-0.5245
H	5.0764	-4.3897	1.5128
H	7.3871	-2.8395	-2.2517
H	5.6412	-2.8303	-2.5560
H	5.3808	-5.3106	-3.6674
H	5.2300	-7.6819	-2.9401
H	6.1137	-8.3840	-0.7385
H	7.1395	-6.7104	0.7964
H	4.2406	-1.4378	-1.5246
X	2.4787	-0.4521	-3.2068
X	-0.2727	-3.0103	-2.3586
X	4.2941	-6.5461	2.7678
X	1.1003	-6.9517	0.6590
0	1	S
1	2	S
1	3	S
3	4	D
3	21	S
4	5	S
4	22	S
5	6	S
5	9	D
6	7	S
6	8	S
9	10	S
9	23	S
10	11	S
10	21	D
11	12	S
11	19	S
12	13	S
12	24	S
12	25	S
13	14	S
13	18	D
14	15	D
14	26	S
15	16	S
15	27	S
16	17	D
16	28	S
17	18	S
17	29	S
18	19	S
19	20	D
21	30	S
31	0	S
32	2	S
33	7	S
34	8	S
