34
30	31	32	33
O	2.6193	0.7536	-0.9626
C	2.2052	0.0474	0.0107
O	1.2133	-0.7480	-0.0170
C	2.9616	0.1633	1.3187
C	2.5756	-0.5859	2.4439
C	3.2736	-0.4816	3.6471
C	4.3650	0.3803	3.7367
C	5.0700	0.5130	4.9638
C	5.6781	0.6606	5.9872
C	6.4683	0.8794	7.2644
C	7.1226	1.0537	8.2525
C	7.9407	1.2440	9.4012
C	8.6498	0.1631	9.9210
C	9.4819	0.3496	11.0250
C	9.6127	1.6135	11.6243
C	10.5375	1.8158	12.8090
O	10.6075	2.9874	13.2977
O	11.1786	0.7981	13.2238
C	8.8745	2.6858	11.0935
C	8.0445	2.5057	9.9856
C	4.7666	1.1321	2.6333
C	4.0682	1.0229	1.4333
H	1.7184	-1.2527	2.3695
H	2.9585	-1.0710	4.5035
H	8.5698	-0.8226	9.4712
H	10.0439	-0.4908	11.4273
H	8.9616	3.6696	11.5519
H	7.4950	3.3519	9.5844
H	5.6164	1.8050	2.6981
H	4.3756	1.6107	0.5697
X	2.9123	1.2533	-1.6514
X	0.5113	-1.3109	-0.0366
X	10.6571	3.8168	13.6437
X	11.6321	0.0782	13.5172
0	1	S
1	2	S
1	3	S
3	4	D
3	21	S
4	5	S
4	22	S
5	6	D
5	23	S
6	7	S
6	20	S
7	8	A
8	9	S
9	10	A
10	11	S
11	12	D
11	19	S
12	13	S
12	24	S
13	14	D
13	25	S
14	15	S
14	18	S
15	16	S
15	17	S
18	19	D
18	26	S
19	27	S
20	21	D
20	28	S
21	29	S
30	0	S
31	2	S
32	16	S
33	17	S
