27
24	25	26
C	5.5758	-1.4279	0.8828
C	4.3782	-0.6283	0.5065
N	4.3757	0.6934	0.4502
C	3.1919	1.0384	-0.1296
C	2.4562	-0.0780	-0.4328
N	3.1772	-1.1602	0.0329
C	2.7424	-2.5129	0.0018
C	1.8529	-2.9402	-0.9933
C	1.4318	-4.2749	-1.0337
C	1.8677	-5.2025	-0.0754
C	1.4133	-6.6486	-0.1176
O	1.8531	-7.4194	0.7930
O	0.6282	-6.9801	-1.0611
C	2.7327	-4.7535	0.9318
C	3.1647	-3.4252	0.9749
H	6.4586	-0.7816	0.9238
H	5.7783	-2.2087	0.1427
H	5.4671	-1.8763	1.8727
H	2.9297	2.0738	-0.3025
H	1.4734	-0.1835	-0.8683
H	1.5016	-2.2763	-1.7770
H	0.7588	-4.6108	-1.8224
H	3.0600	-5.4560	1.6977
H	3.7786	-3.1344	1.8178
X	5.0321	1.2361	0.7411
X	2.1644	-7.9650	1.4375
X	0.0724	-7.2148	-1.7290
0	1	S
0	15	S
0	16	S
0	17	S
1	2	S
1	5	S
2	3	S
3	4	D
3	18	S
4	5	S
4	19	S
5	6	S
6	7	D
6	14	S
7	8	S
7	20	S
8	9	D
8	21	S
9	10	S
9	13	S
10	11	S
10	12	S
13	14	D
13	22	S
14	23	S
2	24	S
25	11	S
26	12	S
