24
19	20	21	22	23
C	2.7745	-1.0981	-1.0652
C	2.4886	0.0548	-0.1040
N	2.6999	-0.4240	1.2887
C	2.4280	0.5996	2.3489
C	0.9859	1.0934	2.3034
C	2.8102	0.0158	3.7826
O	3.7969	-0.7837	3.8217
O	2.1253	0.4435	4.7655
C	3.4299	1.2383	-0.5324
O	4.6735	0.9972	-0.5582
O	2.8246	2.2962	-0.8956
H	1.9922	-1.8637	-0.9946
H	3.7344	-1.5835	-0.8518
H	2.8075	-0.7492	-2.1035
H	1.4419	0.3482	-0.2448
H	3.1034	1.4532	2.2064
H	0.2818	0.2564	2.2390
H	0.8207	1.7443	1.4377
H	0.7203	1.6792	3.1890
X	1.8307	-0.2153	1.1840
X	4.4958	-1.3500	3.8494
X	1.6407	0.7461	5.4609
X	5.5569	0.8259	-0.5765
X	2.3963	3.0448	-1.1526
0	1	S
0	11	S
0	12	S
0	13	S
1	2	S
1	8	S
1	14	S
2	3	S
3	4	S
3	5	S
3	15	S
4	16	S
4	17	S
4	18	S
5	6	S
5	7	S
8	9	S
8	10	S
2	19	S
20	6	S
21	7	S
22	9	S
23	10	S
