38
35	36	37
O	1.3603	-0.6472	-0.5010
C	2.3418	-0.1158	0.1068
O	2.8112	-0.4964	1.2277
C	3.0084	1.0718	-0.5575
C	4.1096	1.7067	0.0284
C	4.7168	2.8111	-0.5843
C	4.2381	3.3366	-1.7984
C	4.8459	4.5357	-2.4188
C	4.8952	4.7259	-3.7998
N	5.4013	5.8189	-4.4224
C	5.9146	6.7818	-3.6181
C	5.9697	6.7218	-2.2257
C	6.6092	7.7736	-1.4043
C	6.1453	8.0884	-0.1140
C	6.8047	9.0247	0.6941
C	7.9457	9.6965	0.2378
C	8.6816	10.6861	1.1211
O	9.7086	11.2522	0.6265
O	8.2214	10.8780	2.2909
C	8.3943	9.4147	-1.0587
C	7.7418	8.4701	-1.8617
C	5.4060	5.5700	-1.6481
C	3.1360	2.6869	-2.3820
C	2.5369	1.5741	-1.7767
H	4.4932	1.3358	0.9779
H	5.5765	3.2512	-0.0848
H	4.5203	3.9688	-4.4835
H	6.2974	7.6445	-4.1571
H	5.2631	7.6026	0.2959
H	6.4357	9.2279	1.6986
H	9.2783	9.9273	-1.4349
H	8.1642	8.2686	-2.8424
H	5.4098	5.4735	-0.5645
H	2.7017	3.0466	-3.3107
H	1.6809	1.0953	-2.2501
X	5.3968	5.9006	-5.3187
X	1.8139	-1.0563	0.6329
X	9.2637	11.4689	1.8199
0	1	S
1	2	S
1	3	S
3	4	D
3	23	S
4	5	S
4	24	S
5	6	D
5	25	S
6	7	S
6	22	S
7	8	D
7	21	S
8	9	S
8	26	S
9	10	S
10	11	S
10	27	S
11	12	S
11	21	D
12	13	D
12	20	S
13	14	S
13	28	S
14	15	D
14	29	S
15	16	S
15	19	S
16	17	S
16	18	S
19	20	D
19	30	S
20	31	S
21	32	S
22	23	D
22	33	S
23	34	S
9	35	S
36	0	S
37	17	S
