30
26	27	28	29
C	0.9216	0.2648	0.2718
C	2.3171	0.1194	-0.2098
N	2.9047	1.1182	-0.9586
N	3.7138	0.6073	-1.7866
C	3.7059	-0.7626	-1.6260
C	4.5081	-1.6215	-2.5352
C	2.8834	-1.1314	-0.6360
C	2.6289	-2.4756	-0.1338
C	3.4264	-2.9954	0.8942
C	3.1631	-4.2644	1.4200
C	2.0983	-5.0399	0.9351
C	1.7989	-6.4074	1.5228
O	0.8117	-7.0423	1.0338
O	2.5552	-6.8122	2.4614
C	1.3110	-4.5107	-0.1009
C	1.5723	-3.2419	-0.6317
H	0.7595	1.2638	0.6885
H	0.6825	-0.4684	1.0471
H	0.2218	0.1292	-0.5606
H	4.9890	-1.0191	-3.3140
H	3.8664	-2.3505	-3.0406
H	5.2915	-2.1522	-1.9881
H	4.2515	-2.4197	1.3035
H	3.7823	-4.6602	2.2240
H	0.4823	-5.1006	-0.4868
H	0.9376	-2.8618	-1.4251
X	2.7742	2.0075	-0.9119
X	4.1902	1.1081	-2.3630
X	0.1130	-7.4917	0.6877
X	3.0905	-7.0987	3.1257
0	1	S
0	16	S
0	17	S
0	18	S
1	2	S
1	6	S
2	3	S
3	4	S
4	5	S
4	6	D
5	19	S
5	20	S
5	21	S
6	7	S
7	8	D
7	15	S
8	9	S
8	22	S
9	10	D
9	23	S
10	11	S
10	14	S
11	12	S
11	13	S
14	15	D
14	24	S
15	25	S
2	26	S
3	27	S
28	12	S
29	13	S
