36
28	29	30	31	32	33	34	35
O	0.9684	0.0067	-2.2743
C	1.8665	-0.7467	-1.7551
O	1.7235	-1.9702	-1.4587
C	3.1844	-0.0058	-1.3770
N	4.3756	-0.6809	-0.7933
C	4.5998	-0.4242	0.6535
C	5.3343	0.8443	1.1824
O	5.2446	1.9252	0.5231
O	5.8601	0.7148	2.3417
C	5.3377	-1.3092	-1.5947
C	5.1764	-1.4614	-2.9954
C	6.1293	-2.1038	-3.8278
C	5.9205	-2.2283	-5.3331
O	6.5966	-3.1129	-5.9653
O	5.1005	-1.4346	-5.9071
C	7.2831	-2.6318	-3.2202
C	7.5041	-2.5325	-1.8343
C	8.7547	-3.1346	-1.1949
O	8.7490	-3.3622	0.0600
O	9.7494	-3.4015	-1.9556
C	6.5266	-1.8630	-1.0563
H	2.8342	0.7349	-0.6423
H	3.4966	0.6076	-2.2318
H	5.0403	-1.3099	1.1274
H	3.6103	-0.3616	1.1304
H	4.2800	-1.0833	-3.4798
H	8.0245	-3.1354	-3.8395
H	6.7293	-1.7878	0.0085
X	0.3380	0.5356	-2.6388
X	1.6219	-2.8393	-1.2482
X	5.1810	2.6916	0.0556
X	6.2299	0.6237	3.1571
X	7.0719	-3.7347	-6.4097
X	4.5228	-0.8754	-6.3115
X	8.7450	-3.5228	0.9455
X	10.4486	-3.5891	-2.4903
0	1	S
1	2	S
1	3	S
3	4	S
3	21	S
3	22	S
4	5	S
4	9	S
5	6	S
5	23	S
5	24	S
6	7	S
6	8	S
9	10	D
9	20	S
10	11	S
10	25	S
11	12	S
11	15	D
12	13	S
12	14	S
15	16	S
15	26	S
16	17	S
16	20	D
17	18	S
17	19	S
20	27	S
28	0	S
29	2	S
30	7	S
31	8	S
32	13	S
33	14	S
34	18	S
35	19	S
