46
35	36	37	38	39	40	41	42	43	44	45
O	5.9891	-1.4473	-3.4535
C	5.4794	-0.3586	-3.8949
O	5.7304	0.1049	-5.0590
C	4.5507	0.4314	-2.9770
C	3.9346	1.6301	-3.4031
C	3.0905	2.3724	-2.5542
C	2.4659	3.6316	-3.0204
N	1.3088	3.6593	-3.7550
C	0.7069	4.7627	-3.4138
C	-0.6478	5.1737	-3.9098
C	-1.4905	5.9983	-3.1338
C	-2.7729	6.3804	-3.5838
C	-3.6827	7.2707	-2.7413
O	-4.8303	7.5839	-3.2145
O	-3.2656	7.6789	-1.6050
C	-3.1842	5.9104	-4.8528
C	-2.3707	5.0854	-5.6652
C	-2.8500	4.6310	-7.0411
O	-2.0721	3.9247	-7.7656
O	-4.0175	4.9963	-7.4249
C	-1.1031	4.7137	-5.1599
N	1.3612	5.5416	-2.5427
N	2.6567	4.8748	-2.3391
C	2.8572	1.8953	-1.2475
C	3.4434	0.7027	-0.7721
C	3.1882	0.1992	0.6444
O	3.7441	-0.8963	1.0055
O	2.4549	0.8950	1.4222
C	4.2822	-0.0105	-1.6602
H	4.1153	1.9944	-4.4128
H	-1.1502	6.3315	-2.1555
H	-4.1686	6.1977	-5.2219
H	-0.4532	4.0695	-5.7500
H	2.1900	2.4596	-0.5971
H	4.7394	-0.9380	-1.3153
X	2.4654	4.9756	-3.2127
X	1.0003	3.0615	-4.3529
X	1.0250	6.2996	-2.1927
X	6.3473	-2.2124	-3.1433
X	5.9072	0.4313	-5.8789
X	-5.6371	7.8041	-3.5472
X	-2.9717	7.9665	-0.8044
X	-1.5235	3.4266	-8.2765
X	-4.8370	5.2527	-7.6943
X	4.1348	-1.6663	1.2593
X	1.9375	1.3860	1.9710
0	1	S
1	2	S
1	3	S
3	4	D
3	28	S
4	5	S
4	29	S
5	6	S
5	23	D
6	7	S
6	22	S
7	8	S
8	9	S
8	21	S
9	10	D
9	20	S
10	11	S
10	30	S
11	12	S
11	15	D
12	13	S
12	14	S
15	16	S
15	31	S
16	17	S
16	20	D
17	18	S
17	19	S
20	32	S
21	22	S
23	24	S
23	33	S
24	25	S
24	28	D
25	26	S
25	27	S
28	34	S
22	35	S
7	36	S
21	37	S
38	0	S
39	2	S
40	13	S
41	14	S
42	18	S
43	19	S
44	26	S
45	27	S
