26
20	21	22	23	24	25
O	2.6853	-1.2993	-0.6488
C	2.1908	-0.2135	-0.1961
O	1.1431	-0.1337	0.5186
C	2.9334	1.0692	-0.5374
C	2.4782	2.3366	-0.1101
C	3.1961	3.5187	-0.3923
C	2.7230	4.8880	0.0703
O	3.4681	5.8809	-0.2199
O	1.6259	4.9631	0.7094
C	4.4005	3.4082	-1.1119
C	4.8692	2.1623	-1.5443
N	6.1041	2.0743	-2.2128
C	6.9784	3.0915	-2.4969
N	8.0519	2.6159	-3.0944
N	7.8879	1.2554	-3.2235
C	6.7213	0.9451	-2.6941
C	4.1290	1.0060	-1.2765
H	1.5518	2.4022	0.4634
H	4.9508	4.3270	-1.3073
H	4.4622	0.0231	-1.6068
X	8.7516	3.1162	-3.3592
X	8.4539	0.6625	-3.5952
X	3.0341	-2.0651	-0.9681
X	0.4011	-0.0772	1.0248
X	3.9941	6.5819	-0.4248
X	0.8496	5.0162	1.1616
0	1	S
1	2	S
1	3	S
3	4	D
3	16	S
4	5	S
4	17	S
5	6	S
5	9	D
6	7	S
6	8	S
9	10	S
9	18	S
10	11	S
10	16	D
11	12	S
11	15	S
12	13	S
13	14	S
14	15	S
16	19	S
13	20	S
14	21	S
22	0	S
23	2	S
24	7	S
25	8	S
