30
25	26	27	28	29
O	2.7729	-0.3988	-1.2042
C	2.2475	-0.0702	-0.0909
O	1.1236	-0.4924	0.3377
C	3.0143	0.9030	0.7873
C	2.4812	1.3724	1.9870
C	3.1897	2.2924	2.7640
C	4.4612	2.7848	2.3806
C	5.0721	3.8494	3.2734
O	5.7148	4.7994	2.7249
O	4.8769	3.7334	4.5278
C	5.0586	2.2851	1.1951
C	6.4368	2.6076	0.7286
C	6.7375	2.7641	-0.6356
C	8.0469	2.9779	-1.0666
C	9.0480	3.0330	-0.1154
N	8.8357	2.8809	1.2038
C	7.5375	2.6903	1.5882
C	4.2973	1.3581	0.4248
H	1.5040	1.0251	2.3142
H	2.7459	2.6524	3.6914
H	5.9423	2.7162	-1.3759
H	8.2710	3.0928	-2.1193
H	10.0803	3.2066	-0.3986
H	7.4084	2.5892	2.6634
H	4.7156	0.9452	-0.4929
X	9.5175	2.9051	1.7908
X	3.1440	-0.6309	-1.9906
X	0.3301	-0.7905	0.6403
X	6.1698	5.4719	2.3366
X	4.7391	3.6515	5.4134
0	1	S
1	2	S
1	3	S
3	4	D
3	17	S
4	5	S
4	18	S
5	6	D
5	19	S
6	7	S
6	10	S
7	8	S
7	9	S
10	11	S
10	17	D
11	12	D
11	16	S
12	13	S
12	20	S
13	14	D
13	21	S
14	15	S
14	22	S
15	16	S
16	23	S
17	24	S
15	25	S
26	0	S
27	2	S
28	8	S
29	9	S
