22
17	18	19	20	21
N	1.0850	-0.0379	0.0633
C	2.4399	-0.0473	0.0657
C	3.1918	-1.2422	0.0685
C	4.6078	-1.2603	0.0715
C	5.3826	-2.5761	0.0758
O	6.6622	-2.5324	0.0796
O	4.7275	-3.6773	0.0757
C	5.2775	-0.0169	0.0705
C	4.5795	1.2115	0.0670
C	5.3258	2.5441	0.0654
O	4.6506	3.6325	0.0639
O	6.6066	2.5257	0.0657
C	3.1644	1.1614	0.0649
H	0.7798	-1.0163	0.0647
H	2.6701	-2.1968	0.0693
H	6.3661	-0.0047	0.0726
H	2.6139	2.1002	0.0625
X	0.4296	0.5789	0.0609
X	7.5617	-2.5017	0.0823
X	4.2674	-4.4508	0.0756
X	4.1762	4.3973	0.0628
X	7.5065	2.5128	0.0659
0	1	S
0	13	S
1	2	D
1	12	S
2	3	S
2	14	S
3	4	S
3	7	D
4	5	S
4	6	S
7	8	S
7	15	S
8	9	S
8	12	D
9	10	S
9	11	S
12	16	S
0	17	S
18	5	S
19	6	S
20	10	S
21	11	S
