24
16	17	18	19	20	21	22	23
O	2.5041	-0.9451	0.7574
C	2.1972	0.0301	-0.0122
O	1.1951	0.7994	0.2213
C	3.0327	0.3150	-1.2738
C	2.6292	1.3691	-2.0772
N	3.2621	1.7539	-3.2135
C	4.3774	1.0236	-3.5844
C	5.1486	1.5113	-4.8247
O	6.4071	1.7231	-4.7169
O	4.4650	1.8467	-5.8607
C	4.8102	-0.0636	-2.8060
C	5.9746	-0.9607	-3.2582
O	6.8783	-1.2684	-2.3998
O	5.9221	-1.4613	-4.4366
N	4.1292	-0.4163	-1.6323
H	1.7576	1.9609	-1.8241
X	2.9598	2.4528	-3.6932
X	4.3928	-1.1041	-1.1151
X	2.7199	-1.6310	1.2987
X	0.4931	1.3383	0.3849
X	7.2915	1.8719	-4.6411
X	3.9865	2.0815	-6.5859
X	7.5118	-1.4841	-1.7980
X	5.8852	-1.8129	-5.2643
0	1	S
1	2	S
1	3	S
3	4	D
3	14	S
4	5	S
4	15	S
5	6	S
6	7	S
6	10	S
7	8	S
7	9	S
10	11	S
10	14	S
11	12	S
11	13	S
5	16	S
14	17	S
18	0	S
19	2	S
20	8	S
21	9	S
22	12	S
23	13	S
