35
31	32	33	34
C	1.1141	-0.1259	0.0579
N	2.5789	-0.0692	0.0544
C	3.2794	-1.0350	0.8223
C	4.5567	-1.4775	0.4331
C	5.2768	-2.4250	1.1787
C	4.7373	-2.9900	2.3403
C	5.5027	-4.0192	3.1515
O	4.9223	-4.4995	4.1756
O	6.6694	-4.3328	2.7492
C	3.4619	-2.5658	2.7327
C	2.7560	-1.6019	1.9958
C	3.1464	0.9573	-0.7537
C	4.3583	1.5737	-0.3954
C	4.9524	2.5624	-1.1970
C	4.3498	2.9863	-2.3877
C	4.9892	4.0407	-3.2710
O	4.3669	4.3634	-4.3346
O	6.0982	4.5327	-2.8890
C	3.1304	2.3959	-2.7407
C	2.5415	1.4065	-1.9397
H	0.6915	-0.9153	0.6854
H	0.7185	-0.3384	-0.9400
H	0.6969	0.8245	0.4120
H	5.0151	-1.0957	-0.4759
H	6.2691	-2.7288	0.8491
H	3.0212	-2.9861	3.6339
H	1.7979	-1.2893	2.3933
H	4.8606	1.2948	0.5274
H	5.9005	3.0040	-0.8939
H	2.6419	2.7050	-3.6632
H	1.6176	0.9735	-2.3025
X	4.5114	-4.8395	4.9006
X	7.4940	-4.5545	2.4649
X	3.9272	4.5914	-5.0861
X	6.8829	4.8808	-2.6187
0	1	S
0	20	S
0	21	S
0	22	S
1	2	S
1	11	S
2	3	D
2	10	S
3	4	S
3	23	S
4	5	D
4	24	S
5	6	S
5	9	S
6	7	S
6	8	S
9	10	D
9	25	S
10	26	S
11	12	D
11	19	S
12	13	S
12	27	S
13	14	D
13	28	S
14	15	S
14	18	S
15	16	S
15	17	S
18	19	D
18	29	S
19	30	S
31	7	S
32	8	S
33	16	S
34	17	S
