38
35	36	37
O	2.8199	-0.5028	1.3105
C	2.3719	-0.0664	0.2029
O	1.3880	-0.5554	-0.4422
C	3.0651	1.1373	-0.4036
C	4.1594	1.7392	0.2305
C	4.7893	2.8600	-0.3237
C	4.3402	3.4355	-1.5256
C	3.2470	2.8196	-2.1607
C	2.6254	1.6907	-1.6132
C	4.9666	4.6534	-2.0838
C	5.0397	4.9022	-3.4545
N	5.5649	6.0158	-4.0206
C	6.0723	6.9371	-3.1662
C	6.1021	6.8165	-1.7770
C	5.5203	5.6473	-1.2593
C	6.7387	7.8225	-0.9005
C	6.2644	8.0782	0.3986
C	6.9262	8.9648	1.2578
C	8.0819	9.6412	0.8460
C	8.5387	9.4203	-0.4593
C	7.8822	8.5270	-1.3140
C	8.8250	10.5697	1.7862
O	9.8692	11.1394	1.3331
O	8.3541	10.7110	2.9591
H	4.5172	1.3283	1.1740
H	5.6405	3.2730	0.2115
H	2.8367	3.2192	-3.0836
H	1.7766	1.2384	-2.1237
H	4.6688	4.1791	-4.1760
H	6.4738	7.8175	-3.6607
H	5.5052	5.5032	-0.1808
H	5.3730	7.5826	0.7765
H	6.5503	9.1226	2.2680
H	9.4322	9.9394	-0.8018
H	8.3106	8.3704	-2.3006
X	5.5761	6.1365	-4.9124
X	1.8231	-1.0194	0.6831
X	9.4132	11.3047	2.5304
0	1	S
1	2	S
1	3	S
3	4	D
3	8	S
4	5	S
4	24	S
5	6	D
5	25	S
6	7	S
6	9	S
7	8	D
7	26	S
8	27	S
9	10	D
9	14	S
10	11	S
10	28	S
11	12	S
12	13	S
12	29	S
13	14	D
13	15	S
14	30	S
15	16	D
15	20	S
16	17	S
16	31	S
17	18	D
17	32	S
18	19	S
18	21	S
19	20	D
19	33	S
20	34	S
21	22	S
21	23	S
11	35	S
36	0	S
37	22	S
