19
15	16	17	18
C	1.1567	0.0298	0.1003
C	2.6374	-0.0738	-0.0388
N	3.2453	-1.1651	-0.3949
C	4.5847	-0.7744	-0.4669
C	5.5986	-1.4114	-1.4113
O	5.7714	-0.8152	-2.5192
O	6.0329	-2.5551	-1.0638
C	4.6195	0.6423	-0.0877
C	5.8392	1.5247	0.0573
O	6.9167	0.9591	0.4314
O	5.6677	2.7819	-0.1024
N	3.3980	1.0510	0.1870
H	0.7062	-0.9657	0.1337
H	0.7564	0.5740	-0.7600
H	0.9042	0.5737	1.0141
X	2.8527	-1.9605	-0.5474
X	3.1507	1.8737	0.4555
X	6.3964	-1.9126	-2.1544
X	6.8070	2.2248	0.1723
0	1	S
0	12	S
0	13	S
0	14	S
1	2	S
1	11	S
2	3	S
3	4	S
3	7	S
4	5	S
4	6	S
7	8	S
7	11	S
8	9	S
8	10	S
2	15	S
11	16	S
17	5	S
18	9	S
