27
21	22	23	24	25	26
O	0.9971	0.0019	-0.0999
P	2.7271	0.0019	-0.0999
O	2.7016	1.5486	0.1381
O	2.7656	-0.9207	1.1596
C	4.5571	0.0019	-0.0999
C	5.3345	1.2157	0.0083
C	6.7736	1.3093	0.0582
C	7.4180	2.6802	0.2644
O	8.2137	2.8473	1.2577
O	7.0706	3.6453	-0.5105
C	7.5210	0.1161	-0.0205
C	9.0454	0.0546	-0.0657
O	9.6379	-0.8701	0.6040
O	9.6804	0.8179	-0.8793
C	6.7839	-1.0963	-0.1229
C	5.3481	-1.1861	-0.1943
C	4.7812	-2.5840	-0.4321
O	5.2154	-3.5587	0.2920
O	4.1133	-2.7741	-1.5233
H	4.7864	2.1556	0.0799
H	7.3467	-2.0281	-0.1655
X	8.7716	2.9645	1.9541
X	6.8274	4.3210	-1.0530
X	10.0525	-1.5171	1.0726
X	10.1256	1.3531	-1.4497
X	5.5184	-4.2390	0.7974
X	3.6486	-2.9064	-2.2826
0	1	S
1	2	S
1	3	D
1	4	S
4	5	D
4	15	S
5	6	S
5	19	S
6	7	S
6	10	D
7	8	S
7	9	S
10	11	S
10	14	S
11	12	S
11	13	S
14	15	D
14	20	S
15	16	S
16	17	S
16	18	S
21	8	S
22	9	S
23	12	S
24	13	S
25	17	S
26	18	S
