22
19	20	21
O	5.0720	1.3480	-2.4376
C	4.5407	0.7505	-1.4581
O	3.5011	0.0370	-1.4266
C	5.2795	0.9438	-0.1351
C	4.6137	0.2372	1.0398
C	5.3503	0.4409	2.3407
C	5.5381	1.7150	2.8830
C	6.2129	1.8614	4.0897
C	6.6710	0.7204	4.7262
N	6.5023	-0.5304	4.2471
C	5.8474	-0.6383	3.0649
H	5.3419	2.0232	0.0492
H	6.3063	0.5771	-0.2586
H	4.5395	-0.8371	0.8254
H	3.5839	0.5938	1.1712
H	5.1622	2.5915	2.3610
H	6.3766	2.8425	4.5187
H	7.2031	0.7845	5.6702
H	5.7287	-1.6561	2.7022
X	6.8089	-1.2511	4.6905
X	5.4502	1.7733	-3.1348
X	2.7593	-0.4721	-1.4041
0	1	S
1	2	S
1	3	S
3	4	S
3	11	S
3	12	S
4	5	S
4	13	S
4	14	S
5	6	D
5	10	S
6	7	S
6	15	S
7	8	D
7	16	S
8	9	S
8	17	S
9	10	S
10	18	S
9	19	S
20	0	S
21	2	S
