36
32	33	34	35
O	1.4585	-1.0210	-0.0936
C	2.1857	0.0189	-0.1865
O	2.2911	0.7590	-1.2160
C	2.9963	0.4105	1.0342
C	3.8206	1.5433	1.0210
C	4.5662	1.9073	2.1493
C	4.5211	1.1502	3.3330
C	5.3145	1.5322	4.5138
C	5.6269	2.8693	4.7787
C	6.4013	3.2316	5.8815
C	6.9065	2.2724	6.7641
C	7.7481	2.6523	7.9130
C	7.6258	3.9104	8.5274
C	8.4225	4.2684	9.6235
C	9.3760	3.3836	10.1446
C	10.2334	3.7681	11.3352
O	11.0768	2.9088	11.7466
O	10.0462	4.9217	11.8382
C	9.5096	2.1312	9.5310
C	8.7100	1.7718	8.4381
C	6.5851	0.9361	6.5046
C	5.8025	0.5739	5.4070
C	3.6953	0.0129	3.3386
C	2.9451	-0.3483	2.2115
H	3.8805	2.1447	0.1154
H	5.1972	2.7897	2.0780
H	6.8964	4.6348	8.1727
H	8.3014	5.2477	10.0840
H	10.2492	1.4300	9.9143
H	8.8647	0.7901	7.9975
H	3.6112	-0.6091	4.2264
H	2.3097	-1.2320	2.2440
X	0.9441	-1.7566	-0.0279
X	2.3657	1.2825	-1.9443
X	11.6734	2.3010	12.0376
X	9.9138	5.7377	12.1940
0	1	S
1	2	S
1	3	S
3	4	D
3	23	S
4	5	S
4	24	S
5	6	D
5	25	S
6	7	S
6	22	S
7	8	D
7	21	S
8	9	S
9	10	D
10	11	S
10	20	S
11	12	D
11	19	S
12	13	S
12	26	S
13	14	D
13	27	S
14	15	S
14	18	S
15	16	S
15	17	S
18	19	D
18	28	S
19	29	S
20	21	D
22	23	D
22	30	S
23	31	S
32	0	S
33	2	S
34	16	S
35	17	S
