32
22	23	24	25	26	27	28	29	30	31
O	2.7491	-0.4821	-1.1980
C	2.1931	-0.0647	-0.1184
O	0.9238	-0.2053	0.0769
C	3.0579	0.4193	1.0533
C	2.7116	-0.0295	2.3577
C	3.4050	0.3404	3.5403
C	2.8352	-0.2213	4.8475
O	3.4639	-1.1633	5.4570
O	1.6286	0.1027	5.1631
C	4.5630	1.1646	3.3997
C	5.1794	1.9130	4.6003
O	5.6381	3.0960	4.4104
O	5.1132	1.4207	5.7887
C	5.0676	1.4382	2.0631
C	6.6039	1.6320	1.9275
O	7.1086	2.5539	1.2033
O	7.3558	0.7845	2.5600
C	4.2133	1.2395	0.9013
C	4.3062	2.0939	-0.3802
O	5.3253	2.0290	-1.1594
O	3.3025	2.8577	-0.6396
H	1.8255	-0.6565	2.4604
X	3.1388	-0.7746	-1.9547
X	0.0396	-0.3032	0.2130
X	3.9038	-1.8225	5.8835
X	0.7859	0.3290	5.3835
X	5.9599	3.9259	4.2772
X	5.0669	1.0767	6.6191
X	7.4645	3.2040	0.6926
X	7.8773	0.1967	2.9987
X	6.0393	1.9835	-1.7054
X	2.6010	3.3915	-0.8209
0	1	S
1	2	S
1	3	S
3	4	D
3	17	S
4	5	S
4	21	S
5	6	S
5	9	D
6	7	S
6	8	S
9	10	S
9	13	S
10	11	S
10	12	S
13	14	S
13	17	D
14	15	S
14	16	S
17	18	S
18	19	S
18	20	S
22	0	S
23	2	S
24	7	S
25	8	S
26	11	S
27	12	S
28	15	S
29	16	S
30	19	S
31	20	S
