30
27	28	29
N	-1.3152	-0.0565	0.7571
C	-0.3799	-0.9355	1.1815
C	0.9640	-0.8663	0.8414
C	1.3866	0.1807	0.0263
C	0.4351	1.0997	-0.4294
C	-0.8816	0.9469	-0.0356
C	2.8087	0.3290	-0.3700
C	3.3627	-0.4536	-1.4577
C	2.9978	-0.3391	-2.7471
C	3.9351	-1.1358	-3.4828
C	4.8074	-1.6725	-2.4247
N	4.4613	-1.2690	-1.2362
C	3.4707	1.6428	-0.1099
N	2.9179	2.7248	0.3788
C	3.9074	3.6895	0.3238
C	5.0808	3.2648	-0.1668
C	4.8884	1.8769	-0.4589
H	-0.7562	-1.7216	1.8312
H	1.6596	-1.6070	1.2265
H	0.7153	1.9335	-1.0624
H	-1.6407	1.6553	-0.3545
H	2.2386	0.3034	-3.1595
H	4.2882	-0.9064	-4.4740
H	5.6598	-2.3164	-2.6795
H	3.6914	4.6959	0.6539
H	5.9813	3.8359	-0.3026
H	5.6476	1.1146	-0.4763
X	-2.1810	-0.1352	0.9900
X	4.8716	-1.4936	-0.4673
X	2.0713	2.7892	0.6773
0	1	S
0	5	S
1	2	S
1	17	S
2	3	D
2	18	S
3	4	S
3	6	S
4	5	D
4	19	S
5	20	S
6	7	S
6	12	S
7	8	D
7	11	S
8	9	S
8	21	S
9	10	S
9	22	S
10	11	S
10	23	S
12	13	S
12	16	S
13	14	S
14	15	D
14	24	S
15	16	S
15	25	S
16	26	S
0	27	S
11	28	S
13	29	S
