15
11	12	13	14
O	2.7228	-1.1700	0.2523
C	2.2887	0.0209	0.1368
O	1.2437	0.4733	0.7103
C	3.0455	0.9617	-0.7275
C	2.6769	2.2729	-0.9213
C	3.5395	2.9608	-1.8053
C	4.5596	2.1693	-2.2802
C	5.5833	2.6482	-3.2437
O	6.4831	1.8318	-3.6199
O	5.4875	3.8583	-3.6339
S	4.4671	0.5888	-1.6154
X	3.0298	-2.0121	0.3340
X	0.5060	0.7926	1.1151
X	7.1198	1.2541	-3.8861
X	5.4199	4.7124	-3.9093
0	1	S
1	2	S
1	3	S
3	4	D
3	10	S
4	5	S
5	6	D
6	7	S
6	10	S
7	8	S
7	9	S
11	0	S
12	2	S
13	8	S
14	9	S
