28
24	25	26	27
C	1.0267	1.4446	2.0919
O	2.2376	1.8073	1.5867
C	2.9567	0.8576	0.8820
O	2.3843	0.0609	-0.0965
C	1.9405	0.6910	-1.2233
C	4.4251	0.8745	0.9895
C	5.0840	1.8817	1.7077
C	6.4860	1.9137	1.8337
C	7.1495	3.0376	2.6153
O	8.4202	3.0460	2.7006
O	6.3839	3.9132	3.1401
C	7.2289	0.8821	1.2250
C	6.6037	-0.1544	0.5000
C	7.3954	-1.2851	-0.1431
O	6.7325	-2.1632	-0.7908
O	8.6588	-1.2977	0.0037
C	5.2032	-0.1297	0.3890
H	0.5031	2.2592	2.5608
H	0.8446	0.3924	2.2279
H	1.8408	0.0181	-2.0586
H	2.1066	1.7539	-1.2872
H	4.5142	2.6760	2.1873
H	8.3161	0.8813	1.3196
H	4.7225	-0.9261	-0.1785
X	9.3182	3.0519	2.7609
X	5.8439	4.5308	3.5103
X	6.2652	-2.7822	-1.2474
X	9.5527	-1.3066	0.1076
0	1	S
0	17	S
0	18	S
1	2	S
2	3	S
2	5	S
3	4	S
4	19	S
4	20	S
5	6	D
5	16	S
6	7	S
6	21	S
7	8	S
7	11	D
8	9	S
8	10	S
11	12	S
11	22	S
12	13	S
12	16	D
13	14	S
13	15	S
16	23	S
24	9	S
25	10	S
26	14	S
27	15	S
