16
12	13	14	15
O	1.9292	1.2771	0.3298
C	2.2772	0.0882	0.0301
O	2.0271	-0.4976	-1.0756
C	2.9886	-0.7460	1.1326
F	2.5659	-0.2929	2.3543
F	2.5603	-2.0431	1.0339
C	4.4774	-0.6127	0.9503
F	4.8768	-1.0621	-0.2839
F	4.8739	0.7006	1.0051
C	5.3217	-1.3863	2.0086
O	4.7214	-2.0552	2.9062
O	6.5924	-1.2907	1.8938
X	1.6835	2.1166	0.5414
X	1.8507	-0.9108	-1.8555
X	4.2961	-2.5291	3.5422
X	7.4862	-1.2235	1.8130
0	1	S
1	2	S
1	3	S
3	4	S
3	5	S
3	6	S
6	7	S
6	8	S
6	9	S
9	10	S
9	11	S
12	0	S
13	2	S
14	10	S
15	11	S
