21
15	16	17	18	19	20
O	0.5756	0.4730	-0.6398
C	1.7222	0.1624	-0.1738
O	1.9567	-0.6143	0.7954
C	2.9033	0.7854	-0.9423
C	4.2610	0.7476	-0.8851
C	5.0980	-0.0547	0.0979
C	6.2476	0.6248	0.8752
O	6.0886	1.8163	1.2841
O	7.2272	-0.1445	1.1676
C	5.0556	1.4888	-2.0166
O	4.4783	2.4753	-2.5784
O	6.1514	0.9527	-2.3734
H	2.4927	1.3992	-1.7497
H	5.5404	-0.8895	-0.4642
H	4.4612	-0.5155	0.8595
X	-0.2331	0.6921	-0.9685
X	2.1237	-1.1673	1.4855
X	5.9759	2.6609	1.5739
X	7.9163	-0.6857	1.3733
X	4.0703	3.1724	-2.9754
X	6.9273	0.5731	-2.6260
0	1	S
1	2	S
1	3	S
3	4	D
3	12	S
4	5	S
4	9	S
5	6	S
5	13	S
5	14	S
6	7	S
6	8	S
9	10	S
9	11	S
15	0	S
16	2	S
17	7	S
18	8	S
19	10	S
20	11	S
