40
34	35	36	37	38	39
O	2.7352	-0.8767	1.0215
C	2.2077	-0.1444	0.1313
O	1.0756	0.4241	0.1949
C	3.0076	0.0733	-1.1366
C	2.4848	0.8041	-2.1948
C	3.1869	0.9488	-3.4155
N	2.3821	1.6224	-4.4186
O	1.9225	2.7388	-4.1297
O	2.2172	1.0356	-5.4923
C	4.5082	0.4425	-3.6578
C	5.2668	0.5333	-5.0210
C	5.3398	1.7052	-5.8475
N	4.7303	2.9826	-5.5043
O	4.9781	3.4287	-4.3727
O	4.0101	3.5250	-6.3570
C	6.0821	1.7925	-7.0512
C	6.8898	0.7506	-7.4836
C	7.7628	0.8990	-8.7109
O	8.5267	-0.0730	-8.9925
O	7.6621	1.9890	-9.3541
C	6.8581	-0.4225	-6.7352
C	6.0274	-0.5545	-5.5873
N	5.9656	-1.9358	-5.0641
O	4.9032	-2.2958	-4.5459
O	6.9728	-2.6475	-5.1671
C	5.0426	-0.2069	-2.4849
N	6.4486	-0.6309	-2.3747
O	7.2898	0.0490	-2.9829
O	6.7196	-1.6279	-1.6935
C	4.2931	-0.4359	-1.2979
H	1.4904	1.2428	-2.0709
H	6.0680	2.7095	-7.6468
H	7.4916	-1.2477	-7.0712
H	4.7144	-1.0087	-0.4684
X	1.5741	-0.3169	1.1357
X	1.7169	2.1792	-5.2477
X	4.2281	4.0351	-5.2215
X	8.4550	1.0167	-9.6840
X	5.9154	-3.0570	-4.6394
X	7.5943	-0.9764	-2.2849
0	1	S
1	2	S
1	3	S
3	4	D
3	29	S
4	5	S
4	30	S
5	6	S
5	9	D
6	7	S
6	8	S
9	10	S
9	25	S
10	11	D
10	21	S
11	12	S
11	15	S
12	13	S
12	14	S
15	16	D
15	31	S
16	17	S
16	20	S
17	18	S
17	19	S
20	21	D
20	32	S
21	22	S
22	23	S
22	24	S
25	26	S
25	29	D
26	27	S
26	28	S
29	33	S
34	0	S
35	7	S
36	13	S
37	18	S
38	23	S
39	27	S
