22
18	19	20	21
O	1.3486	-0.6682	0.0750
C	2.3464	0.1170	0.0021
O	2.7689	0.6743	-1.0600
C	3.0861	0.4080	1.2723
C	4.1575	1.3038	1.2899
C	4.8507	1.5642	2.4743
C	4.5086	0.9314	3.6755
C	5.2563	1.1834	4.9137
C	5.9944	2.3586	5.0969
C	6.7099	2.5937	6.2734
C	6.7214	1.6511	7.3031
C	7.4988	1.8941	8.5622
O	7.5062	0.9669	9.4311
O	8.0961	3.0118	8.6718
C	5.9915	0.4737	7.1296
C	5.2672	0.2499	5.9569
C	3.4324	0.0367	3.6458
C	2.7277	-0.2177	2.4677
X	0.6425	-1.2239	0.1266
X	3.0679	1.0687	-1.8117
X	7.5114	0.3102	10.0465
X	8.5187	3.8026	8.7493
0	1	S
1	2	S
1	3	S
3	4	D
3	17	S
4	5	S
5	6	D
6	7	S
6	16	S
7	8	D
7	15	S
8	9	S
9	10	D
10	11	S
10	14	S
11	12	S
11	13	S
14	15	D
16	17	D
18	0	S
19	2	S
20	12	S
21	13	S
