28
24	25	26	27
O	1.5589	-0.1109	0.8894
C	2.5812	0.1620	0.1844
O	3.1140	1.3093	0.0675
C	3.2136	-0.9698	-0.5663
C	4.3159	-0.7567	-1.3968
C	4.9100	-1.8186	-2.0815
C	4.4336	-3.1278	-1.9500
C	5.0623	-4.2508	-2.6538
C	4.8935	-5.5665	-2.2103
C	5.4646	-6.6392	-2.8894
C	6.2002	-6.4075	-4.0470
C	6.4021	-5.1112	-4.5330
C	7.1571	-4.8732	-5.7667
C	7.2857	-5.8692	-6.7424
C	7.9954	-5.6454	-7.9227
C	8.6143	-4.4163	-8.1598
C	9.3921	-4.1809	-9.4169
O	9.9771	-3.0594	-9.5407
O	9.4199	-5.1246	-10.2672
C	8.4940	-3.4161	-7.1923
C	7.7705	-3.6403	-6.0199
C	5.8348	-4.0521	-3.8079
C	3.3243	-3.3282	-1.1182
C	2.7193	-2.2697	-0.4420
X	0.8353	-0.3041	1.3884
X	3.4915	2.1221	-0.0153
X	10.3914	-2.2652	-9.6284
X	9.4396	-5.7931	-10.8695
0	1	S
1	2	S
1	3	S
3	4	D
3	23	S
4	5	S
5	6	D
6	7	S
6	22	S
7	8	D
7	21	S
8	9	S
9	10	D
10	11	S
11	12	S
11	21	D
12	13	D
12	20	S
13	14	S
14	15	D
15	16	S
15	19	S
16	17	S
16	18	S
19	20	D
22	23	D
24	0	S
25	2	S
26	17	S
27	18	S
