21
17	18	19	20
O	2.5825	-1.3044	-0.0345
C	2.2072	-0.0877	-0.0203
O	1.1664	0.3489	0.5742
C	3.0559	0.9176	-0.7686
C	2.6985	2.2753	-0.8040
C	3.4881	3.2126	-1.4811
C	4.6573	2.8228	-2.1606
C	5.5013	3.8496	-2.8810
O	6.5488	3.4358	-3.4812
O	5.1061	5.0619	-2.8368
C	5.0004	1.4634	-2.1334
O	6.1180	0.9986	-2.7810
C	4.2216	0.5250	-1.4469
H	1.7961	2.5973	-0.2886
H	3.1948	4.2619	-1.4806
H	6.5270	1.8049	-3.1918
H	4.5188	-0.5211	-1.4373
X	2.8478	-2.1644	-0.0445
X	0.4321	0.6569	0.9936
X	7.2875	3.1440	-3.9045
X	4.8273	5.9171	-2.8056
0	1	S
1	2	S
1	3	S
3	4	D
3	12	S
4	5	S
4	13	S
5	6	D
5	14	S
6	7	S
6	10	S
7	8	S
7	9	S
10	11	S
10	12	D
11	15	S
12	16	S
17	0	S
18	2	S
19	8	S
20	9	S
