28
21	22	23	24	25	26	27
O	2.3875	1.3910	0.0897
C	2.3279	0.1031	0.0134
O	1.7159	-0.4743	-0.9550
C	3.1232	-0.7268	1.0342
C	2.9898	-2.0930	1.3465
C	1.8373	-3.0425	0.9847
O	2.0583	-4.3166	1.0205
O	0.6570	-2.5842	0.7702
N	4.0894	-2.4291	2.1377
C	4.8051	-1.3087	2.3617
C	6.0788	-1.2419	3.1390
C	6.6042	-2.3736	3.7593
C	7.8047	-2.2754	4.4526
C	8.4365	-1.0381	4.4974
N	7.9642	0.0862	3.9191
C	6.7795	-0.0491	3.2455
N	4.2149	-0.2571	1.7631
H	6.0605	-3.3135	3.6838
H	8.2305	-3.1433	4.9365
H	9.3780	-0.9196	5.0203
H	6.3945	0.8489	2.7664
X	4.3041	-3.2435	2.4549
X	8.4063	0.8679	3.9782
X	4.4957	0.5948	1.8361
X	2.4290	2.2885	0.1429
X	1.2865	-0.8794	-1.6344
X	2.2121	-5.2030	1.0454
X	-0.1702	-2.2630	0.6199
0	1	S
1	2	S
1	3	S
3	4	D
3	16	S
4	5	S
4	8	S
5	6	S
5	7	S
8	9	S
9	10	S
9	16	S
10	11	D
10	15	S
11	12	S
11	17	S
12	13	D
12	18	S
13	14	S
13	19	S
14	15	S
15	20	S
8	21	S
14	22	S
16	23	S
24	0	S
25	2	S
26	6	S
27	7	S
