32
26	27	28	29	30	31
O	2.5540	-0.2176	1.3316
C	2.2114	-0.0756	0.1150
O	1.2119	0.6109	-0.2832
C	3.0452	-0.7642	-0.9535
C	2.6921	-0.6383	-2.3105
C	3.4559	-1.2370	-3.3120
O	3.0730	-0.9903	-4.6062
C	4.1498	-1.0985	-5.5403
N	3.8216	-0.3436	-6.7402
C	3.0347	0.7642	-6.8437
N	3.0727	1.2225	-8.0758
C	3.9249	0.3544	-8.6944
N	4.4131	-0.6214	-7.9272
C	4.5532	-2.0248	-2.9617
C	4.9592	-2.1637	-1.6275
C	6.2098	-2.9699	-1.3165
O	6.5601	-3.1039	-0.1038
O	6.8387	-3.4560	-2.3172
C	4.1935	-1.5251	-0.6313
H	1.8200	-0.0434	-2.5730
H	4.2843	-2.1436	-5.8411
H	5.0820	-0.6573	-5.1665
H	2.4850	1.1778	-6.0084
H	4.2028	0.4382	-9.7365
H	5.1379	-2.5505	-3.7120
H	4.4945	-1.6173	0.4129
X	2.6347	1.9361	-8.4059
X	4.9824	-1.2824	-8.1485
X	2.7964	-0.3181	2.1925
X	0.5071	1.0950	-0.5640
X	6.8085	-3.1989	0.7560
X	7.2816	-3.7983	-3.0219
0	1	S
1	2	S
1	3	S
3	4	D
3	18	S
4	5	S
4	19	S
5	6	S
5	13	D
6	7	S
7	8	S
7	20	S
7	21	S
8	9	S
8	12	S
9	10	S
9	22	S
10	11	S
11	12	S
11	23	S
13	14	S
13	24	S
14	15	S
14	18	D
15	16	S
15	17	S
18	25	S
10	26	S
12	27	S
28	0	S
29	2	S
30	16	S
31	17	S
