36
30	31	32	33	34	35
O	0.9610	-0.2814	-0.1462
C	2.1538	-0.0616	-0.0668
N	2.7825	0.4617	1.0560
C	2.1287	0.8909	2.2390
C	0.8451	0.4759	2.5947
C	0.2454	0.9388	3.7710
C	0.9070	1.8429	4.6154
C	0.2369	2.3672	5.8726
O	0.9039	3.1801	6.5896
O	-0.9415	1.9576	6.1208
C	2.2025	2.2485	4.2588
C	2.8117	1.7705	3.0903
N	3.0187	-0.2771	-1.1024
C	2.6945	-0.6818	-2.4121
C	1.3919	-0.9622	-2.8310
C	1.1376	-1.4020	-4.1328
C	2.1825	-1.5635	-5.0534
C	1.9137	-2.0867	-6.4494
O	2.9162	-2.2082	-7.2241
O	0.7107	-2.3706	-6.7469
C	3.4837	-1.2333	-4.6426
C	3.7370	-0.7910	-3.3384
H	0.2915	-0.2266	1.9804
H	-0.7524	0.5937	4.0371
H	2.7310	2.9509	4.9016
H	3.8120	2.1168	2.8526
H	3.9960	-0.0902	-0.9109
H	0.1155	-1.6191	-4.4378
H	4.3041	-1.3452	-5.3491
H	4.7582	-0.5508	-3.0628
X	1.9435	0.1564	1.1698
X	3.8279	-0.0948	-0.7531
X	1.3756	3.7549	7.0966
X	-1.7753	1.6678	6.2964
X	3.6251	-2.2941	-7.7719
X	-0.1409	-2.5716	-6.9575
0	1	D
1	2	S
1	12	S
2	3	S
3	4	D
3	11	S
4	5	S
4	22	S
5	6	D
5	23	S
6	7	S
6	10	S
7	8	S
7	9	S
10	11	D
10	24	S
11	25	S
12	13	S
12	26	S
13	14	D
13	21	S
14	15	S
15	16	D
15	27	S
16	17	S
16	20	S
17	18	S
17	19	S
20	21	D
20	28	S
21	29	S
2	30	S
12	31	S
32	8	S
33	9	S
34	18	S
35	19	S
