30
26	27	28	29
C	1.2261	-0.2318	-0.0680
C	2.6928	-0.0463	-0.0070
N	3.4437	-1.1710	0.0339
N	4.7243	-0.7923	-0.0312
C	4.7418	0.5593	0.0287
C	3.4645	1.1149	-0.0171
C	3.0440	2.5730	-0.0444
C	3.6817	3.6687	-0.6196
C	4.8936	3.7472	-1.4640
N	3.0351	4.8352	-0.3884
N	1.8906	4.5297	0.2361
C	1.9113	3.2004	0.4769
C	0.7832	2.6506	1.2628
C	6.0687	1.2041	0.1895
H	0.9687	-1.2656	-0.3280
H	0.7884	0.4213	-0.8274
H	0.7877	-0.0299	0.9116
H	5.0860	2.7951	-1.9602
H	5.7558	4.0388	-0.8559
H	4.7581	4.4951	-2.2538
H	0.2353	3.4491	1.7761
H	1.1521	1.9599	2.0252
H	0.0762	2.1485	0.5987
H	6.8081	0.4828	0.5575
H	6.0077	2.0191	0.9163
H	6.4336	1.5799	-0.7677
X	3.1453	-2.0180	0.0936
X	5.4351	-1.3398	-0.1015
X	3.3147	5.6617	-0.6092
X	1.2343	5.1064	0.4522
0	1	S
0	14	S
0	15	S
0	16	S
1	2	S
1	5	S
2	3	S
3	4	S
4	5	D
4	13	S
5	6	S
6	7	D
6	11	S
7	8	S
7	9	S
8	17	S
8	18	S
8	19	S
9	10	S
10	11	S
11	12	S
12	20	S
12	21	S
12	22	S
13	23	S
13	24	S
13	25	S
2	26	S
3	27	S
9	28	S
10	29	S
