30
25	26	27	28	29
O	3.3234	1.3926	-1.6338
C	3.6893	0.6639	-0.6570
O	4.0324	1.0929	0.4881
C	3.7505	-0.8222	-0.8846
C	4.2501	-1.6669	0.0919
N	4.4028	-3.0039	-0.0602
C	3.9952	-3.5283	-1.2536
C	3.4549	-2.8099	-2.3234
C	3.1207	-3.4215	-3.6514
C	3.3531	-2.6348	-4.8143
C	3.1375	-3.0967	-6.1152
C	2.6989	-4.3910	-6.3159
C	2.4599	-5.1989	-5.2101
C	2.6420	-4.7419	-3.8757
C	2.2604	-5.7421	-2.8003
O	2.5108	-6.9678	-3.0515
O	1.6754	-5.3182	-1.7588
C	3.3392	-1.4217	-2.0896
H	4.5585	-1.2748	1.0579
H	4.1455	-4.6022	-1.3205
H	3.7359	-1.6177	-4.7131
H	3.3246	-2.4420	-6.9601
H	2.5382	-4.7779	-7.3160
H	2.1108	-6.2192	-5.3652
H	2.9258	-0.7630	-2.8509
X	4.7543	-3.5136	0.5930
X	3.0646	1.9080	-2.3247
X	4.2755	1.3969	1.2996
X	2.6874	-7.8323	-3.2287
X	1.2600	-5.0172	-1.0193
0	1	S
1	2	S
1	3	S
3	4	D
3	17	S
4	5	S
4	18	S
5	6	S
6	7	S
6	19	S
7	8	S
7	17	D
8	9	D
8	13	S
9	10	S
9	20	S
10	11	D
10	21	S
11	12	S
11	22	S
12	13	D
12	23	S
13	14	S
14	15	S
14	16	S
17	24	S
5	25	S
26	0	S
27	2	S
28	15	S
29	16	S
