30
27	28	29
C	0.9263	-0.9214	-0.0011
C	1.1201	0.3805	0.3938
N	-0.0263	1.0647	0.3419
C	-0.9782	0.2113	-0.0661
C	-2.4131	0.5794	-0.4449
C	-2.6503	1.8103	-1.3226
C	-1.7326	2.8187	-1.5788
C	-2.2755	3.6080	-2.5787
C	-3.5032	3.0600	-2.8556
N	-3.7546	2.0144	-2.0619
C	-3.5025	-0.4055	-0.1656
C	-4.0730	-0.4713	1.1093
C	-5.0036	-1.4629	1.3622
N	-5.3915	-2.3825	0.4519
C	-4.8440	-2.2804	-0.7792
C	-3.9120	-1.3198	-1.1345
C	-0.4340	-1.0522	-0.2318
H	1.6847	-1.6849	-0.1149
H	2.0572	0.8399	0.6820
H	-0.7588	2.9551	-1.1259
H	-1.8148	4.4629	-3.0520
H	-4.2015	3.3992	-3.6127
H	-3.7944	0.2239	1.8940
H	-5.4746	-1.5586	2.3399
H	-5.1773	-3.0264	-1.4954
H	-3.5074	-1.2925	-2.1401
H	-0.9464	-1.9397	-0.5798
X	-0.1364	1.9349	0.5434
X	-4.5188	1.5400	-2.0312
X	-5.9836	-3.0292	0.6550
0	1	D
0	16	S
0	17	S
1	2	S
1	18	S
2	3	S
3	4	S
3	16	D
4	5	S
4	10	S
5	6	D
5	9	S
6	7	S
6	19	S
7	8	D
7	20	S
8	9	S
8	21	S
10	11	D
10	15	S
11	12	S
11	22	S
12	13	S
12	23	S
13	14	S
14	15	D
14	24	S
15	25	S
16	26	S
2	27	S
9	28	S
13	29	S
