30
27	28	29
N	-1.2591	0.0063	0.9388
C	-0.2781	-0.8056	1.3923
C	1.0395	-0.7474	0.9622
C	1.3723	0.2061	0.0011
C	0.3681	1.0374	-0.5050
C	-0.9164	0.8997	-0.0108
C	2.7769	0.4011	-0.4762
C	3.4092	-0.6037	-1.4419
C	4.7413	-0.6383	-1.8299
C	4.8415	-1.6049	-2.8147
C	3.5823	-2.1438	-2.9366
N	2.7417	-1.5961	-2.0562
C	3.4763	1.7261	-0.1480
C	3.1049	2.6106	0.8534
C	3.8782	3.7488	0.6766
C	4.6908	3.4883	-0.3987
N	4.4960	2.2483	-0.8463
H	-0.5915	-1.5253	2.1440
H	1.7773	-1.4280	1.3721
H	0.5806	1.7781	-1.2692
H	-1.7236	1.5290	-0.3740
H	5.5429	-0.0069	-1.4705
H	5.7272	-1.8657	-3.3791
H	3.2798	-2.9106	-3.6393
H	2.3391	2.4635	1.6053
H	3.8370	4.6645	1.2509
H	5.4066	4.1622	-0.8553
X	-2.1005	-0.0455	1.2541
X	1.8906	-1.8471	-1.9060
X	4.9647	1.8404	-1.4974
0	1	S
0	5	S
1	2	S
1	17	S
2	3	D
2	18	S
3	4	S
3	6	S
4	5	D
4	19	S
5	20	S
6	7	S
6	12	S
7	8	D
7	11	S
8	9	S
8	21	S
9	10	D
9	22	S
10	11	S
10	23	S
12	13	D
12	16	S
13	14	S
13	24	S
14	15	D
14	25	S
15	16	S
15	26	S
0	27	S
11	28	S
16	29	S
