21
18	19	20
O	2.7923	0.2014	1.1213
C	2.3594	-0.0230	-0.0543
O	1.3320	0.5183	-0.5757
C	3.1314	-1.0179	-0.8996
C	2.7244	-1.3301	-2.2066
C	3.4225	-2.2673	-2.9836
C	4.5596	-2.9298	-2.4863
C	5.2360	-3.9883	-3.3117
O	5.8846	-4.8841	-2.6904
O	5.0677	-3.9400	-4.5717
C	4.9811	-2.5851	-1.1953
N	6.2231	-3.1057	-0.6413
O	7.2833	-2.6518	-1.1078
O	6.1411	-3.8211	0.3734
C	4.2815	-1.6531	-0.4041
H	1.8445	-0.8398	-2.6198
H	3.0711	-2.4955	-3.9889
H	4.6301	-1.4083	0.5981
X	1.7486	0.7642	0.6145
X	5.7760	-4.8334	-3.9707
X	7.2466	-3.5347	-0.1848
0	1	S
1	2	S
1	3	S
3	4	D
3	14	S
4	5	S
4	15	S
5	6	D
5	16	S
6	7	S
6	10	S
7	8	S
7	9	S
10	11	S
10	14	D
11	12	S
11	13	S
14	17	S
18	0	S
19	8	S
20	12	S
