30
26	27	28	29
C	-2.2832	-0.1332	0.9527
N	-2.0003	-1.1706	1.7908
C	-0.8962	-1.6473	1.3309
N	-0.3493	-1.0526	0.2787
N	-1.2534	0.0882	-0.0076
C	-1.7265	0.0459	-1.3994
C	-2.6725	1.1984	-1.7875
C	-3.0980	1.1492	-3.2682
C	-3.8957	-0.1161	-3.6284
N	-4.2677	-0.1599	-5.0501
C	-5.0786	-1.2931	-5.3567
N	-4.5700	-2.0264	-6.3888
C	-3.4451	-1.4566	-6.6496
N	-3.1040	-0.3926	-5.9350
H	-3.2614	0.3272	0.9533
H	-0.3612	-2.5260	1.7155
H	-2.2163	-0.9175	-1.5886
H	-0.8561	0.0963	-2.0668
H	-2.1689	2.1566	-1.6056
H	-3.5737	1.1902	-1.1642
H	-2.2033	1.2324	-3.8923
H	-3.7174	2.0311	-3.4766
H	-4.8076	-0.1251	-3.0125
H	-3.3313	-1.0177	-3.3675
H	-5.8658	-1.6931	-4.7309
H	-2.7147	-1.7773	-7.4039
X	-2.4523	-1.4792	2.5053
X	0.4059	-1.3368	-0.1199
X	-4.9093	-2.7438	-6.8134
X	-2.3201	0.0405	-6.0237
0	1	S
0	4	S
0	14	S
1	2	S
2	3	S
2	15	S
3	4	S
4	5	S
5	6	S
5	16	S
5	17	S
6	7	S
6	18	S
6	19	S
7	8	S
7	20	S
7	21	S
8	9	S
8	22	S
8	23	S
9	10	S
9	13	S
10	11	S
10	24	S
11	12	S
12	13	S
12	25	S
1	26	S
3	27	S
11	28	S
13	29	S
