16
13	14	15
C	1.0976	0.9405	0.0458
C	1.4341	-0.3392	-0.2036
C	0.3713	-1.2634	-0.4054
N	0.4235	-2.5775	-0.7047
N	-0.7720	-2.9941	-0.8412
N	-1.7351	-1.9205	-0.6368
C	-1.0142	-0.8840	-0.3778
C	-1.3340	0.5204	-0.0863
C	-0.3009	1.3618	0.1114
H	1.8618	1.6966	0.2035
H	2.4614	-0.6759	-0.2582
H	-2.3724	0.8189	-0.0457
H	-0.4883	2.4104	0.3280
X	1.1501	-3.1001	-0.7995
X	-0.9073	-3.8615	-1.0396
X	-2.6344	-1.9007	-0.6660
0	1	D
0	8	S
0	9	S
1	2	S
1	10	S
2	3	S
2	6	S
3	4	S
4	5	S
5	6	S
6	7	S
7	8	D
7	11	S
8	12	S
3	13	S
4	14	S
5	15	S
