32
28	29	30	31
O	2.9249	1.0084	0.5726
C	2.2675	0.0880	-0.0103
O	1.0207	0.1144	-0.2615
C	3.0374	-1.1482	-0.4405
C	2.3930	-2.2150	-1.0857
C	3.1031	-3.3590	-1.4749
C	4.4810	-3.4681	-1.2378
N	5.2448	-4.6158	-1.5506
N	4.8407	-5.2029	-2.5769
C	5.5518	-6.3954	-2.8490
C	6.1849	-7.1750	-1.8699
C	6.8216	-8.3780	-2.2048
C	6.8376	-8.8441	-3.5280
C	7.5094	-10.1577	-3.8877
O	7.4751	-10.5124	-5.1094
O	8.0557	-10.8101	-2.9426
C	6.2039	-8.0633	-4.5066
C	5.5702	-6.8597	-4.1697
C	5.1225	-2.4071	-0.5886
C	4.4148	-1.2628	-0.1985
H	1.3230	-2.1504	-1.2769
H	2.5666	-4.1710	-1.9567
H	6.1785	-6.8595	-0.8309
H	7.3042	-8.9697	-1.4283
H	6.2010	-8.4082	-5.5395
H	5.0791	-6.2834	-4.9481
H	6.1859	-2.4715	-0.3774
H	4.9335	-0.4493	0.3063
X	5.9555	-4.9569	-1.1164
X	4.1608	-4.8338	-3.0367
X	1.6591	1.0649	0.3297
X	8.0402	-11.1957	-4.1719
0	1	S
1	2	S
1	3	S
3	4	D
3	19	S
4	5	S
4	20	S
5	6	D
5	21	S
6	7	S
6	18	S
7	8	S
8	9	S
9	10	D
9	17	S
10	11	S
10	22	S
11	12	D
11	23	S
12	13	S
12	16	S
13	14	S
13	15	S
16	17	D
16	24	S
17	25	S
18	19	D
18	26	S
19	27	S
7	28	S
8	29	S
30	0	S
31	14	S
