32
28	29	30	31
O	1.3450	0.0697	0.1995
C	2.5977	-0.0098	-0.0076
O	3.3488	-0.9698	0.3575
C	3.2525	1.1378	-0.7555
C	2.5011	2.2396	-1.1942
C	3.1038	3.2937	-1.8945
C	4.4775	3.2794	-2.1719
C	5.2259	2.1782	-1.7398
C	4.6265	1.1252	-1.0379
N	5.1407	4.2639	-2.9354
N	4.6348	5.4031	-2.8387
C	5.2416	6.3290	-3.7229
C	5.7958	5.9634	-4.9589
C	6.3463	6.9216	-5.8178
C	6.3515	8.2810	-5.4749
C	5.7842	8.6495	-4.2436
C	5.2367	7.6863	-3.3823
C	6.9483	9.3172	-6.4101
O	6.9162	10.5313	-6.0276
O	7.4364	8.8996	-7.5076
H	1.4313	2.2647	-0.9928
H	2.4860	4.1189	-2.2355
H	6.2885	2.1326	-1.9604
H	5.2279	0.2779	-0.7124
H	5.7976	4.9230	-5.2695
H	6.7726	6.6117	-6.7703
H	5.7691	9.7015	-3.9633
H	4.8002	8.0047	-2.4404
X	5.8615	4.1685	-3.4658
X	3.9666	5.5312	-2.2496
X	2.0802	-0.9168	0.5835
X	7.4201	10.1363	-7.1494
0	1	S
1	2	S
1	3	S
3	4	D
3	8	S
4	5	S
4	20	S
5	6	D
5	21	S
6	7	S
6	9	S
7	8	D
7	22	S
8	23	S
9	10	S
10	11	S
11	12	D
11	16	S
12	13	S
12	24	S
13	14	D
13	25	S
14	15	S
14	17	S
15	16	D
15	26	S
16	27	S
17	18	S
17	19	S
9	28	S
10	29	S
30	0	S
31	18	S
