23
20	21	22
O	2.6634	1.2092	-0.1788
C	2.2887	0.0115	0.0189
O	1.2441	-0.5338	-0.4571
C	3.1681	-0.8478	0.9039
C	2.8398	-2.1833	1.1740
C	3.6538	-2.9800	1.9867
C	4.8145	-2.4396	2.5568
N	5.6431	-3.2296	3.3925
C	5.4940	-4.5495	3.7371
N	6.4676	-4.9344	4.5327
N	7.2877	-3.8542	4.7325
C	6.7865	-2.8478	4.0521
C	5.1509	-1.1043	2.2950
C	4.3352	-0.3235	1.4732
H	1.9302	-2.6010	0.7406
H	3.3393	-4.0058	2.1464
H	4.6880	-5.1805	3.3957
H	7.2059	-1.8545	4.0157
H	6.0354	-0.6267	2.7017
H	4.6055	0.7119	1.2681
X	6.5545	-5.7642	4.8701
X	8.0359	-3.8124	5.2309
X	1.5921	0.6922	-0.6821
0	1	S
1	2	S
1	3	S
3	4	D
3	13	S
4	5	S
4	14	S
5	6	D
5	15	S
6	7	S
6	12	S
7	8	S
7	11	S
8	9	S
8	16	S
9	10	S
10	11	S
11	17	S
12	13	D
12	18	S
13	19	S
9	20	S
10	21	S
22	0	S
