22
18	19	20	21
C	-0.0654	-1.4589	-0.0458
C	1.1248	-0.7718	-0.0592
N	1.2115	0.5705	-0.0280
C	0.0439	1.2556	0.0335
N	-1.1752	0.6605	0.0490
C	-1.1976	-0.6835	0.0038
C	0.0961	2.7446	0.1122
N	1.1741	3.3841	-0.4081
C	1.1874	4.7263	-0.3137
C	0.1886	5.4574	0.2824
C	-0.8611	4.7284	0.7851
N	-0.9376	3.3881	0.7111
H	-0.1088	-2.5384	-0.0710
H	2.0752	-1.2968	-0.0929
H	-2.1876	-1.1298	0.0110
H	2.0575	5.2121	-0.7467
H	0.2251	6.5351	0.3509
H	-1.6983	5.2120	1.2806
X	2.0085	0.9881	-0.0473
X	-1.9374	1.1375	0.0877
X	1.8508	2.9375	-0.7988
X	-1.6453	2.9439	1.0457
0	1	D
0	5	S
0	12	S
1	2	S
1	13	S
2	3	S
3	4	S
3	6	S
4	5	S
5	14	S
6	7	S
6	11	S
7	8	S
8	9	D
8	15	S
9	10	S
9	16	S
10	11	S
10	17	S
2	18	S
4	19	S
7	20	S
11	21	S
