34
30	31	32	33
O	1.1702	-0.2346	0.0360
C	2.4350	-0.0395	-0.0396
O	3.0829	0.0261	-1.1360
C	3.2210	-0.1066	1.2593
C	2.9106	-1.1712	2.1632
C	3.6613	-1.4608	3.3262
C	4.7470	-0.6093	3.5722
C	5.0439	0.4740	2.7303
C	4.2898	0.7595	1.5735
C	4.6588	2.0092	0.7911
O	5.9100	2.2787	0.6925
O	3.7319	2.8109	0.4377
C	3.3754	-2.6341	4.2149
C	2.7556	-3.7924	3.7279
C	2.5290	-4.9081	4.5504
C	2.9336	-4.9445	5.9033
C	3.6099	-3.8179	6.4175
C	3.7730	-2.6770	5.5723
C	4.2689	-3.7757	7.7875
O	4.2300	-2.6599	8.4165
O	4.9654	-4.7771	8.1597
C	2.5642	-6.1757	6.7103
O	1.9641	-6.0204	7.8233
O	2.6993	-7.3122	6.1261
H	2.0506	-1.7888	1.9059
H	5.3994	-0.7788	4.4239
H	5.8878	1.1168	2.9726
H	2.4476	-3.8584	2.6891
H	2.0333	-5.7839	4.1350
H	4.2553	-1.8097	6.0215
X	1.8143	0.0135	-1.0653
X	4.9501	2.9959	0.1734
X	4.7889	-3.7424	8.8685
X	2.2721	-7.1491	7.3484
0	1	S
1	2	S
1	3	S
3	4	D
3	8	S
4	5	S
4	24	S
5	6	D
5	12	S
6	7	S
6	25	S
7	8	D
7	26	S
8	9	S
9	10	S
9	11	S
12	13	D
12	17	S
13	14	S
13	27	S
14	15	D
14	28	S
15	16	S
15	21	S
16	17	D
16	18	S
17	29	S
18	19	S
18	20	S
21	22	S
21	23	S
30	0	S
31	10	S
32	19	S
33	22	S
