34
30	31	32	33
O	1.4309	-0.9226	0.1963
C	2.1493	0.1265	0.1377
O	2.0964	1.0625	1.0213
C	2.9305	0.4654	-1.1279
C	2.5958	1.7058	-1.7294
C	3.2624	2.2225	-2.8486
C	4.3236	1.5328	-3.4433
C	5.0671	2.0836	-4.6226
C	5.6980	1.2433	-5.5503
C	6.4353	1.7583	-6.6275
C	6.5680	3.1443	-6.8595
C	7.5053	3.5787	-7.9752
O	8.3960	4.4554	-7.7193
O	7.4721	2.8876	-9.0565
C	5.8747	4.0215	-6.0003
C	5.7544	5.5190	-6.2440
O	5.7235	6.2760	-5.2116
O	5.5148	5.9247	-7.4294
C	5.1755	3.4695	-4.8814
C	4.6494	0.2888	-2.8458
C	3.9806	-0.2841	-1.7141
C	4.5218	-1.6249	-1.2233
O	5.7777	-1.8263	-1.3890
O	3.7394	-2.5187	-0.7762
H	1.7974	2.2969	-1.2764
H	2.9363	3.1772	-3.2422
H	5.6364	0.1639	-5.4465
H	6.9406	1.0698	-7.3025
H	4.7039	4.1842	-4.2072
H	5.4928	-0.2758	-3.2401
X	1.5347	-0.1401	1.1333
X	8.2450	3.9215	-8.8557
X	5.6595	6.6997	-6.4361
X	4.9471	-2.6786	-0.8376
0	1	S
1	2	S
1	3	S
3	4	D
3	20	S
4	5	S
4	24	S
5	6	D
5	25	S
6	7	S
6	19	S
7	8	D
7	18	S
8	9	S
8	26	S
9	10	D
9	27	S
10	11	S
10	14	S
11	12	S
11	13	S
14	15	S
14	18	D
15	16	S
15	17	S
18	28	S
19	20	D
19	29	S
20	21	S
21	22	S
21	23	S
30	0	S
31	12	S
32	16	S
33	22	S
