30
27	28	29
N	-1.2713	-0.0917	0.9231
C	-0.2820	-0.9191	1.3231
C	1.0328	-0.8194	0.8944
C	1.3569	0.1949	-0.0078
C	0.3425	1.0382	-0.4656
C	-0.9378	0.8617	0.0281
C	2.7572	0.3749	-0.4959
C	3.3166	-0.6440	-1.3862
C	4.5878	-1.0870	-1.4359
C	4.6283	-2.0201	-2.5214
C	3.2479	-2.0128	-3.0134
N	2.4769	-1.2159	-2.3393
C	3.5128	1.6821	-0.2169
C	3.0141	2.7668	0.4900
C	3.9409	3.7877	0.3479
C	4.9886	3.2465	-0.3546
N	4.7466	1.9716	-0.6625
H	-0.5857	-1.6926	2.0232
H	1.7779	-1.5199	1.2560
H	0.5427	1.8145	-1.1960
H	-1.7515	1.5051	-0.2933
H	5.4177	-0.7902	-0.8160
H	5.3219	-2.8288	-2.6550
H	2.9518	-2.6406	-3.8669
H	2.0616	2.8361	1.0000
H	3.8561	4.8027	0.7120
H	5.9008	3.7521	-0.6518
X	-2.1109	-0.1717	1.2373
X	1.5984	-1.0932	-2.4915
X	5.3086	1.4132	-1.0895
0	1	S
0	5	S
1	2	S
1	17	S
2	3	D
2	18	S
3	4	S
3	6	S
4	5	D
4	19	S
5	20	S
6	7	S
6	12	S
7	8	D
7	11	S
8	9	S
8	21	S
9	10	S
9	22	S
10	11	S
10	23	S
12	13	D
12	16	S
13	14	S
13	24	S
14	15	D
14	25	S
15	16	S
15	26	S
0	27	S
11	28	S
16	29	S
