30
27	28	29
C	-0.2092	1.2162	0.5047
C	0.8135	0.6477	-0.3845
N	0.5695	-0.5867	-0.7070
C	-0.6458	-0.8684	-0.0919
C	-1.3074	-2.1208	-0.4459
C	-2.5210	-2.0871	-1.3727
C	-2.9759	-3.1532	-2.1299
C	-4.0017	-2.6602	-2.9216
C	-4.1453	-1.3395	-2.5724
N	-3.2667	-0.9988	-1.6276
C	-0.6478	-3.4095	-0.0911
C	-1.2279	-4.2866	0.8260
C	-0.5711	-5.4765	1.1063
N	0.6004	-5.8381	0.5419
C	1.1445	-4.9697	-0.3388
C	0.5604	-3.7652	-0.6845
C	-1.1454	0.1391	0.6429
H	-0.4673	2.2611	0.4957
H	1.6634	1.2529	-0.7276
H	-2.5705	-4.1569	-2.1511
H	-4.5653	-3.1991	-3.6712
H	-4.8533	-0.6311	-2.9882
H	-2.1687	-4.0595	1.3182
H	-0.9793	-6.1910	1.8154
H	2.0913	-5.2747	-0.7729
H	1.0484	-3.1078	-1.4012
H	-2.1047	0.1849	1.1291
X	1.0986	-1.1056	-1.2177
X	-3.1916	-0.1911	-1.2377
X	0.9990	-6.6196	0.7429
0	1	S
0	16	S
0	17	S
1	2	S
1	18	S
2	3	S
3	4	S
3	16	D
4	5	S
4	10	S
5	6	D
5	9	S
6	7	S
6	19	S
7	8	D
7	20	S
8	9	S
8	21	S
10	11	D
10	15	S
11	12	S
11	22	S
12	13	S
12	23	S
13	14	S
14	15	D
14	24	S
15	25	S
16	26	S
2	27	S
9	28	S
13	29	S
