34
30	31	32	33
N	-0.5951	-1.8146	1.2837
C	-1.0303	-0.6760	1.7015
N	-1.8033	0.0308	0.8880
N	-2.0336	-0.8660	-0.2610
C	-1.1319	-1.9302	0.0353
C	-1.7744	-0.2620	-1.5713
C	-2.6313	0.9425	-1.9318
C	-2.0350	2.2041	-2.0823
C	-2.7987	3.3304	-2.4095
C	-4.1861	3.2270	-2.5733
C	-4.7794	1.9595	-2.4602
C	-4.0118	0.8303	-2.1412
C	-5.0355	4.4760	-2.7487
N	-5.2273	4.9587	-4.1202
N	-6.0021	6.2270	-4.1622
C	-6.9541	5.9846	-5.0560
N	-7.0338	4.8006	-5.5544
C	-6.0252	4.1147	-4.9404
H	-0.8089	-0.2115	2.6725
H	-0.7146	-2.6260	-0.6803
H	-1.9411	-1.0131	-2.3577
H	-0.7166	0.0220	-1.6550
H	-0.9687	2.3168	-1.9074
H	-2.3174	4.2994	-2.4971
H	-5.8538	1.8574	-2.5871
H	-4.4937	-0.1361	-2.0182
H	-4.5456	5.2716	-2.1678
H	-6.0015	4.3160	-2.2476
H	-7.6241	6.8261	-5.2840
H	-5.9586	3.0365	-5.0037
X	-0.0609	-2.3769	1.7402
X	-2.0863	0.8670	1.0630
X	-5.9106	7.0069	-3.7225
X	-7.6332	4.5262	-6.1671
0	1	S
0	4	S
1	2	S
1	18	S
2	3	S
3	4	S
3	5	S
4	19	S
5	6	S
5	20	S
5	21	S
6	7	D
6	11	S
7	8	S
7	22	S
8	9	D
8	23	S
9	10	S
9	12	S
10	11	D
10	24	S
11	25	S
12	13	S
12	26	S
12	27	S
13	14	S
13	17	S
14	15	S
15	16	S
15	28	S
16	17	S
17	29	S
0	30	S
2	31	S
14	32	S
16	33	S
