34
30	31	32	33
C	-3.3352	-1.4364	-0.0447
N	-3.2111	-2.7137	0.4160
C	-1.9412	-2.9183	0.4270
N	-1.1468	-1.9330	0.0278
N	-2.0756	-0.8033	-0.2492
C	-1.8514	-0.2466	-1.5935
C	-2.6506	0.9879	-1.9884
C	-2.0055	2.2227	-2.1587
C	-2.7275	3.3713	-2.5024
C	-4.1200	3.3242	-2.6596
C	-4.9189	4.6155	-2.7354
N	-5.3147	5.1149	-4.0593
C	-4.2300	5.4233	-4.9222
N	-4.2405	6.7233	-5.3384
C	-5.2448	7.2368	-4.7231
N	-5.9625	6.4563	-3.9253
C	-4.7546	2.0794	-2.5857
C	-4.0251	0.9242	-2.2652
H	-4.3098	-1.0055	-0.2187
H	-1.4393	-3.8501	0.7221
H	-1.9877	-1.0114	-2.3697
H	-0.7904	0.0345	-1.6428
H	-0.9334	2.3003	-2.0019
H	-2.2091	4.3221	-2.6016
H	-4.3559	5.3848	-2.1893
H	-5.8297	4.4568	-2.1430
H	-3.4280	4.7473	-5.1987
H	-5.5624	8.2897	-4.7681
H	-5.8297	2.0134	-2.7309
H	-4.5447	-0.0259	-2.2052
X	-3.8427	-3.3050	0.6639
X	-0.2522	-2.0080	-0.0356
X	-3.6931	7.1565	-5.9065
X	-6.6665	6.7455	-3.4449
0	1	S
0	4	S
0	18	S
1	2	S
2	3	S
2	19	S
3	4	S
4	5	S
5	6	S
5	20	S
5	21	S
6	7	D
6	17	S
7	8	S
7	22	S
8	9	D
8	23	S
9	10	S
9	16	S
10	11	S
10	24	S
10	25	S
11	12	S
11	15	S
12	13	S
12	26	S
13	14	S
14	15	S
14	27	S
16	17	D
16	28	S
17	29	S
1	30	S
3	31	S
13	32	S
15	33	S
