23
20	21	22
O	1.4212	-0.7664	0.0891
C	2.4226	0.0155	0.0383
O	2.8050	0.6735	-0.9798
C	3.2343	0.1822	1.3097
C	2.8893	-0.4987	2.4883
C	3.6321	-0.3311	3.6625
C	4.7349	0.5333	3.6769
C	5.0969	1.2101	2.5043
C	4.3519	1.0294	1.3359
N	5.4717	0.7155	4.8729
N	5.1986	0.0316	6.0160
C	6.1318	0.4890	6.8494
N	6.9715	1.4307	6.3403
C	6.5342	1.5596	5.1079
H	2.0261	-1.1633	2.4805
H	3.3270	-0.8769	4.5522
H	5.9485	1.8785	2.4488
H	4.6356	1.5543	0.4237
H	6.2014	0.1231	7.8658
H	6.9338	2.2343	4.3662
X	4.5559	-0.5765	6.1810
X	7.6566	1.8667	6.7283
X	1.7808	-0.1163	-0.9670
0	1	S
1	2	S
1	3	S
3	4	D
3	8	S
4	5	S
4	14	S
5	6	D
5	15	S
6	7	S
6	9	S
7	8	D
7	16	S
8	17	S
9	10	S
9	13	S
10	11	S
11	12	S
11	18	S
12	13	S
13	19	S
10	20	S
12	21	S
22	0	S
