34
31	32	33
O	6.0795	2.2959	-3.1212
N	5.0667	1.5832	-3.2319
O	4.8322	0.8427	-4.1976
C	4.0665	1.6891	-2.1899
C	3.4912	2.9538	-1.9738
C	2.5049	3.1237	-0.9895
C	2.1642	2.0098	-0.2064
C	2.7812	0.7645	-0.4011
C	3.7035	0.5689	-1.4362
O	4.2900	-0.6566	-1.6940
C	3.5644	-1.8076	-1.4341
C	2.1944	-1.9152	-1.6959
C	1.4635	-3.0422	-1.2857
C	2.1695	-4.1165	-0.7056
C	3.5717	-4.0825	-0.5366
C	4.2531	-2.9017	-0.8983
C	4.3286	-5.2742	0.0313
O	5.5975	-5.1643	0.1336
O	3.6740	-6.3156	0.3551
C	-0.0457	-3.0653	-1.4459
O	-0.7062	-3.9234	-0.7758
O	-0.5627	-2.2097	-2.2377
C	1.8328	4.4679	-0.7825
O	0.9337	4.5487	0.1125
O	2.2321	5.4293	-1.5162
H	3.7866	3.8115	-2.5760
H	1.3927	2.1084	0.5581
H	2.4878	-0.0574	0.2516
H	1.6561	-1.0967	-2.1699
H	1.6149	-4.9996	-0.3853
H	5.3278	-2.8446	-0.7396
X	4.9255	-6.2140	0.4791
X	-1.2389	-3.0836	-1.5726
X	1.3012	5.5312	-0.6188
0	1	S
1	2	D
1	3	S
3	4	D
3	8	S
4	5	S
4	25	S
5	6	D
5	22	S
6	7	S
6	26	S
7	8	D
7	27	S
8	9	S
9	10	S
10	11	D
10	15	S
11	12	S
11	28	S
12	13	D
12	19	S
13	14	S
13	29	S
14	15	D
14	16	S
15	30	S
16	17	S
16	18	S
19	20	S
19	21	S
22	23	S
22	24	S
31	17	S
32	20	S
33	23	S
