35
31	32	33	34
O	5.1619	3.5325	0.8320
C	4.8958	3.0726	1.9899
O	5.1328	3.6907	3.0823
C	4.2637	1.6920	2.0947
C	3.9529	1.1372	3.3554
C	3.3703	-0.1297	3.4572
O	3.0101	-0.5721	4.7203
C	1.8669	-1.3416	4.8294
C	0.7119	-1.0714	4.0844
C	-0.3978	-1.9258	4.1462
C	-0.4144	-3.0405	5.0002
C	-1.6274	-3.9483	5.0827
O	-1.5695	-4.9121	5.9123
O	-2.6285	-3.6673	4.3489
C	0.7229	-3.2806	5.7902
C	1.8374	-2.4302	5.7030
N	2.9634	-2.6997	6.5725
O	3.2731	-1.8277	7.4005
O	3.4972	-3.8177	6.4948
C	3.1712	-0.8978	2.3037
C	3.4089	-0.3659	1.0286
C	3.0493	-1.1756	-0.2046
O	2.9821	-0.5699	-1.3221
O	2.8264	-2.4202	-0.0394
C	3.9559	0.9350	0.9460
H	4.1559	1.7187	4.2517
H	0.6777	-0.2229	3.4036
H	-1.2550	-1.7316	3.5023
H	0.7259	-4.1358	6.4637
H	2.7684	-1.9064	2.3712
H	4.1425	1.3586	-0.0425
X	5.3942	4.1611	1.9073
X	-2.5867	-4.6662	5.1479
X	3.8966	-2.9231	7.2931
X	2.7651	-1.8155	-1.1792
0	1	S
1	2	S
1	3	S
3	4	D
3	24	S
4	5	S
4	25	S
5	6	S
5	19	D
6	7	S
7	8	D
7	15	S
8	9	S
8	26	S
9	10	D
9	27	S
10	11	S
10	14	S
11	12	S
11	13	S
14	15	D
14	28	S
15	16	S
16	17	S
16	18	S
19	20	S
19	29	S
20	21	S
20	24	D
21	22	S
21	23	S
24	30	S
31	0	S
32	12	S
33	17	S
34	22	S
