13
8	9	10	11	12
O	1.2364	-0.2646	-0.4077
C	2.4311	0.0567	-0.0451
O	2.9185	1.2255	-0.2884
C	3.3029	-0.9872	0.7026
N	2.8972	-2.2591	1.0169
N	3.9567	-2.8201	1.6524
N	4.9633	-1.9249	1.7287
N	4.5841	-0.7634	1.1385
X	2.1028	-2.6445	0.8427
X	3.9872	-3.6598	1.9749
X	5.7625	-2.0785	2.1131
X	5.0731	-0.0125	1.0549
X	1.7570	0.8638	-0.6232
0	1	S
1	2	S
1	3	S
3	4	S
3	7	S
4	5	S
5	6	S
6	7	S
4	8	S
5	9	S
6	10	S
7	11	S
12	0	S
