25
21	22	23	24
N	0.2103	0.8839	-1.2906
C	-0.6454	1.2153	-0.3002
C	-0.8563	0.4013	0.7985
N	-0.2228	-0.7844	0.9569
C	0.6368	-1.1366	-0.0380
C	0.8418	-0.3051	-1.1372
C	1.2898	-2.4881	0.0529
C	2.7931	-2.4595	0.0681
N	3.4402	-2.5366	-1.1262
C	4.7919	-2.5636	-1.0640
C	5.4804	-2.5138	0.1347
N	4.8505	-2.4175	1.3262
C	3.4975	-2.3855	1.2664
H	-1.1651	2.1596	-0.4153
H	-1.5508	0.6790	1.5832
H	1.5173	-0.5809	-1.9418
H	0.9498	-3.0952	-0.7968
H	0.9321	-3.0097	0.9502
H	5.3113	-2.6350	-2.0129
H	6.5631	-2.5542	0.1693
H	2.9910	-2.3150	2.2239
X	0.3497	1.4173	-2.0020
X	-0.3640	-1.3050	1.6773
X	3.0003	-2.5679	-1.9107
X	5.3004	-2.3775	2.1047
0	1	S
0	5	S
1	2	S
1	13	S
2	3	S
2	14	S
3	4	S
4	5	D
4	6	S
5	15	S
6	7	S
6	16	S
6	17	S
7	8	S
7	12	S
8	9	S
9	10	D
9	18	S
10	11	S
10	19	S
11	12	S
12	20	S
0	21	S
3	22	S
8	23	S
11	24	S
