14
   12   13
H    0.0000 0.0000 0.0000
H    -0.4790 1.7376 0.6692
I    -6.6851 -0.3019 -1.6968
I    -0.7974 -0.8225 -2.6192
I    -2.8175 2.0514 2.3145
N    -0.7653 0.7838 0.1787
C    -4.4993 0.7964 0.1277
C    -4.7295 0.1654 -1.0818
C    -3.6660 -0.2701 -1.8981
C    -2.3676 -0.0775 -1.4480
C    -2.0743 0.5724 -0.2093
C    -3.1716 1.0015 0.5266
X    -5.1462 1.1162 0.3275
X    -3.6369 -0.1209 -2.5156
   0    5 S
   1    5 S
   2    7 S
   3    9 S
   4   11 S
   5   10 S
   6    7 A
   6   11 A
   6   12 S
   7    8 A
   8    9 A
   8   13 S
   9   10 A
  10   11 A
