20
   18   19
N    0.0000 0.0000 0.0000
N    -2.1720 0.2100 0.6931
C    -0.6779 5.0128 0.6961
C    -1.2765 -1.9710 0.4074
C    -1.9054 4.3837 0.7562
C    0.4058 4.2340 0.4360
C    -0.9183 2.2736 0.4706
H    -2.6873 4.8960 0.8645
C    -1.0318 0.8040 0.4104
H    1.2385 4.6398 0.2781
C    -2.3053 -1.1440 0.6660
C    -0.1015 -1.3433 0.0331
H    -3.1507 -1.5174 0.8329
H    0.6436 -1.8670 -0.2045
Ir   -3.4609 1.6810 0.6720
Ir   1.3803 1.2491 0.5488
C    -1.9952 3.0199 0.6600
C    0.3087 2.8641 0.3984
X    -0.6637 5.7395 0.8030
X    -1.2869 -2.7005 0.4020
   0    8 A
   0   11 A
   0   15 S
   1    8 A
   1   10 A
   1   14 S
   2    4 A
   2    5 A
   2   18 S
   3   10 A
   3   11 A
   3   19 S
   4    7 S
   4   16 A
   5    9 S
   5   17 A
   6    8 S
   6   16 A
   6   17 A
  10   12 S
  11   13 S
  14   16 S
  15   17 S
