16
   14   15
S    0.0000 0.0000 0.0000
C    -0.3452 -0.3243 -1.6302
C    0.5259 0.2998 -2.4303
C    1.4906 1.0554 -1.7328
C    1.3576 0.9696 -0.3900
S    3.3713 2.7149 0.2794
C    3.7617 2.9831 1.9096
C    2.9663 2.2651 2.7096
C    2.0224 1.4837 2.0121
H    0.4992 0.2396 -3.3572
H    2.1479 1.5596 -2.1542
C    2.1345 1.5953 0.6693
H    3.0308 2.2783 3.6365
H    1.3896 0.9489 2.4336
X    -0.8068 -0.7925 -2.0949
X    4.1402 3.5146 2.3685
   0    1 A
   0    4 A
   1    2 A
   1   14 S
   2    3 A
   2    9 S
   3    4 A
   3   10 S
   4   11 S
   5    6 A
   5   11 A
   6    7 A
   6   15 S
   7    8 A
   7   12 S
   8   11 A
   8   13 S
