9
    7    8
O    0.0000 0.0000 0.0000
C    0.9539 -0.5989 0.5557
O    1.5294 -0.2609 1.6332
Ni   -0.7139 1.8694 0.4453
O    -3.3951 3.8301 -0.1310
O    -1.4018 3.7220 0.8952
C    -2.5240 4.2577 0.6906
X    0.9600 -1.2151 0.2140
X    -2.4103 4.8353 1.0766
   0    1 S
   0    3 S
   1    2 D
   1    7 S
   3    5 S
   4    6 D
   5    6 S
   6    8 S
