16
   14   15
H    0.0000 0.0000 0.0000
H    1.0055 1.9814 0.7748
H    0.9947 3.4458 -2.9826
H    -0.0162 1.5257 -3.7450
H    2.0493 4.1054 0.4048
H    1.9021 5.1714 -2.1308
C    -0.1264 0.5716 -1.9420
C    0.1953 0.7036 -0.6084
C    0.8134 1.8828 -0.1490
C    1.1436 2.8942 -1.0256
C    0.8007 2.7449 -2.3716
C    0.1931 1.6110 -2.8236
C    1.8151 4.1028 -0.5165
C    2.1215 5.1768 -1.2069
X    -0.3526 0.0311 -2.4830
X    2.3528 5.6986 -0.6828
   0    7 S
   1    8 S
   2   10 S
   3   11 S
   4   12 S
   5   13 S
   6    7 A
   6   11 A
   6   14 S
   7    8 A
   8    9 A
   9   10 A
   9   12 S
  10   11 A
  12   13 D
  13   15 S
