30
   28   29
H    0.0000 0.0000 0.0000
H    -0.8924 -0.9934 -0.8265
H    -0.0541 0.4620 -2.3230
H    0.7232 -0.8840 -2.5566
C    2.7138 3.5097 -4.4568
C    2.3474 2.2338 -4.8744
C    2.0607 1.2473 -4.0017
C    2.1641 1.4795 -2.6541
C    2.6015 2.7027 -2.2126
C    2.8254 3.6819 -3.1007
C    0.2094 -2.5614 0.7264
C    0.7575 -3.8474 0.8086
C    0.1808 -4.7221 1.7326
C    -0.8763 -4.3290 2.5309
C    -1.3360 -3.0486 2.4257
C    -0.8008 -2.1606 1.5196
C    0.0193 -0.6971 -0.6751
C    0.5786 -0.1584 -1.9277
O    0.7655 -1.7344 -0.2336
O    1.8700 0.5434 -1.6779
H    2.2980 2.0572 -5.7882
H    1.7951 0.4115 -4.3097
H    2.7434 2.8505 -1.3065
H    3.0670 4.5221 -2.7824
H    1.4730 -4.1073 0.2747
H    0.5160 -5.5856 1.8096
H    -2.0283 -2.7693 2.9801
H    -1.1317 -1.2952 1.4580
X    2.8385 3.9270 -5.1586
X    -1.2455 -4.6260 3.2686
   0   16 S
   1   16 S
   2   17 S
   3   17 S
   4    5 A
   4    9 A
   4   28 S
   5    6 A
   5   20 S
   6    7 A
   6   21 S
   7    8 A
   7   19 S
   8    9 A
   8   22 S
   9   23 S
  10   11 A
  10   15 A
  10   18 S
  11   12 A
  11   24 S
  12   13 A
  12   25 S
  13   14 A
  13   29 S
  14   15 A
  14   26 S
  15   27 S
  16   17 S
  16   18 S
  17   19 S
