8
    6    7
N    0.0000 0.0000 0.0000
N    -0.0020 -0.6849 -1.1416
H    1.2292 2.0091 -2.0563
C    0.4921 0.0628 -2.1256
C    0.8512 1.2959 -1.5938
C    0.5559 1.2488 -0.2512
X    0.4727 -0.1782 -2.8195
X    0.7346 1.6769 0.3032
   0    1 A
   0    5 A
   1    3 A
   2    4 S
   3    4 A
   3    6 S
   4    5 A
   5    7 S
