30
   28   29
C    0.0000 0.0000 0.0000
C    1.1137 -0.6083 0.2277
C    -1.1232 -0.7248 -0.1638
C    -1.0824 -2.1440 -0.1157
C    1.2869 -1.9918 0.2122
C    2.6704 -2.6063 0.5522
C    0.1287 -2.7564 0.0766
C    0.1543 -4.2032 0.1985
C    0.2158 -5.3794 0.2947
C    0.1970 -6.8213 0.4046
C    -0.8686 -7.5631 -0.1758
C    1.2503 -7.4864 1.0758
C    2.3574 -6.7245 1.7645
C    1.2081 -8.8504 1.1141
C    -0.9029 -8.8976 -0.1192
C    0.2118 -9.5949 0.4973
H    1.8750 -0.0712 0.4217
H    -1.9511 -0.2832 -0.3115
H    -1.8759 -2.6573 -0.2153
H    3.3114 -1.8881 0.7377
H    2.5875 -3.1830 1.3421
H    2.9865 -3.1396 -0.2067
H    -1.5719 -7.1004 -0.6154
H    3.0222 -6.4437 1.1000
H    1.9839 -5.9349 2.2059
H    2.7845 -7.3016 2.4308
H    1.8931 -9.3112 1.5825
H    -1.6400 -9.3808 -0.4763
X    -0.0196 0.7716 -0.1667
X    0.1810 -10.3218 0.7145
   0    1 A
   0    2 A
   0   28 S
   1    4 A
   1   16 S
   2    3 A
   2   17 S
   3    6 A
   3   18 S
   4    5 S
   4    6 A
   5   19 S
   5   20 S
   5   21 S
   6    7 S
   7    8 T
   8    9 S
   9   10 A
   9   11 A
  10   14 A
  10   22 S
  11   12 S
  11   13 A
  12   23 S
  12   24 S
  12   25 S
  13   15 A
  13   26 S
  14   15 A
  14   27 S
  15   29 S
