66
   64   65
H    0.0000 0.0000 0.0000
H    -1.8570 0.8599 -1.2285
H    -0.7966 0.1381 -2.1322
H    -2.1284 -0.5948 -1.7496
H    -1.3842 -1.1696 1.6514
H    -1.6730 0.3520 1.3972
H    -2.5856 -0.7396 0.7376
H    3.3493 -3.3662 0.4229
H    2.9190 -5.5918 -1.2637
H    3.8453 -4.3620 -1.5608
H    4.2778 -5.4314 -0.4984
H    2.3351 -5.8547 1.2008
H    3.6178 -5.1618 1.7773
H    2.1978 -4.5715 2.0894
H    4.9389 -1.5684 1.8704
H    7.1779 -0.6973 3.3104
H    7.3560 -1.9649 2.4041
C    5.2849 -2.9051 3.4488
N    2.9785 -0.2228 1.9107
N    1.8781 -1.4213 0.4884
H    6.9352 -0.5948 1.7647
H    1.4607 1.5550 2.4922
C    1.6390 1.8959 3.3935
H    4.3630 -3.1145 3.6150
H    5.6689 -3.5779 2.8824
H    5.7623 -2.8761 4.2796
H    1.1397 3.7137 2.6634
C    1.7974 3.3707 3.2726
H    1.6776 3.7761 4.1361
H    2.6760 3.5712 2.9428
H    -0.3371 1.8468 3.8088
H    0.4253 0.5792 4.3324
C    0.4661 1.5350 4.2317
H    0.5512 1.9426 5.0952
C    2.7347 -5.0126 1.4274
C    6.8483 -1.1607 2.5375
C    2.8214 -4.1660 0.2165
C    5.2179 -0.0847 4.8183
H    -2.0101 -2.7001 -1.2939
H    0.8047 -5.4915 -0.9591
C    -0.7173 -4.2551 -1.2587
C    0.5424 -4.6071 -0.8408
C    1.4539 -3.7383 -0.2517
C    0.9522 -2.4239 -0.0730
C    -0.2928 -1.9805 -0.4305
C    -1.1496 -2.9474 -1.0397
C    2.6317 -0.5102 -0.2266
C    2.1003 -1.2164 1.7924
C    3.2957 0.2139 0.6797
C    3.5585 0.1960 3.1468
C    2.8953 1.2164 3.8768
C    3.4732 1.5394 5.1128
C    4.6241 0.8889 5.5987
C    3.5315 -4.9613 -0.8786
C    4.7067 -0.4366 3.5747
H    3.0824 2.2078 5.6289
C    -0.7813 -0.5547 -0.1989
C    -1.4534 0.0156 -1.4425
C    -1.6881 -0.5258 1.0070
H    2.6686 -0.4188 -1.1505
H    1.7108 -1.6864 2.4922
H    3.8837 0.9089 0.4884
C    5.3800 -1.5149 2.7440
H    5.9806 -0.5146 5.1330
X    -1.2406 -4.6274 -1.5935
X    4.9229 0.9938 6.2834
   0   56 S
   1   57 S
   2   57 S
   3   57 S
   4   58 S
   5   58 S
   6   58 S
   7   36 S
   8   53 S
   9   53 S
  10   53 S
  11   34 S
  12   34 S
  13   34 S
  14   62 S
  15   35 S
  16   35 S
  17   23 S
  17   24 S
  17   25 S
  17   62 S
  18   47 A
  18   48 A
  18   49 S
  19   43 S
  19   46 A
  19   47 A
  20   35 S
  21   22 S
  22   27 S
  22   32 S
  22   50 S
  26   27 S
  27   28 S
  27   29 S
  30   32 S
  31   32 S
  32   33 S
  34   36 S
  35   62 S
  36   42 S
  36   53 S
  37   52 A
  37   54 A
  37   63 S
  38   45 S
  39   41 S
  40   41 A
  40   45 A
  40   64 S
  41   42 A
  42   43 A
  43   44 A
  44   45 A
  44   56 S
  46   48 A
  46   59 S
  47   60 S
  48   61 S
  49   50 A
  49   54 A
  50   51 A
  51   52 A
  51   55 S
  52   65 S
  54   62 S
  56   57 S
  56   58 S
