18
   16   17
S    0.0000 0.0000 0.0000
C    -0.7404 -2.3839 -3.2904
C    -1.8547 -1.6811 -3.0052
C    -3.1586 -1.6140 -3.6907
C    -1.5387 0.7137 -0.1813
H    -3.7440 -1.0253 -3.2086
H    -3.0340 -1.2789 -4.5818
H    -3.5455 -2.4908 -3.7305
C    -1.6039 -0.8858 -1.8287
C    -2.3501 0.1123 -1.1521
C    -0.3521 -1.0452 -1.2671
C    -3.8236 0.4692 -1.5059
H    -3.8657 0.7952 -2.4081
H    -4.3713 -0.3134 -1.4241
H    -4.1410 1.1485 -0.9066
S    0.6085 -2.1629 -2.1715
X    -0.5774 -2.7843 -3.9074
X    -1.6423 1.2844 0.2775
   0    4 A
   0   10 A
   1    2 A
   1   15 A
   1   16 S
   2    3 S
   2    8 A
   3    5 S
   3    6 S
   3    7 S
   4    9 A
   4   17 S
   8    9 A
   8   10 A
   9   11 S
  10   15 A
  11   12 S
  11   13 S
  11   14 S
