58
   56   57
H    0.0000 0.0000 0.0000
C    1.4744 15.1736 1.3712
C    2.6160 14.5229 1.5708
C    2.8299 13.1097 1.4222
C    1.7302 12.4384 1.1149
C    0.4938 12.9851 0.8401
C    0.4225 14.4284 1.0032
C    4.0997 12.4229 1.7075
C    -0.7796 12.2307 0.4132
C    1.5080 10.3045 2.3111
C    1.5482 8.8299 2.3124
C    1.7340 8.1435 1.0863
C    1.9377 8.8556 -0.1323
C    1.9160 10.3206 -0.1473
C    1.4058 8.1303 3.4471
C    1.4474 6.7151 3.4510
C    1.6089 6.0634 2.2948
C    1.8338 6.7456 1.1395
C    2.0186 6.0274 -0.1200
C    2.2362 6.7512 -1.2982
C    2.1403 8.1520 -1.2810
C    1.5037 4.6018 2.3207
C    2.0583 4.5821 -0.1152
C    1.7723 2.4558 1.0164
C    3.9750 2.4398 2.2614
C    2.6983 0.3619 1.5993
C    -0.4254 2.6317 -0.1741
C    0.7253 0.4473 0.4203
C    0.7093 1.8347 0.4163
C    2.7892 1.7511 1.5905
C    1.6510 -0.2831 0.9531
H    -0.0811 3.2087 -0.8880
N    1.7437 10.9687 1.0960
N    1.8224 3.9231 1.0718
H    -0.8343 3.1857 0.5231
H    3.3642 15.0444 1.8376
H    -0.4049 14.8634 0.8441
H    4.7949 13.0871 1.8992
H    3.9856 11.8357 2.4838
H    4.3656 11.8867 0.9320
H    -1.0762 11.6522 1.1474
H    -1.4848 12.8755 0.1978
H    -0.5825 11.6828 -0.3737
O    2.1887 10.9990 -1.1294
O    1.2266 10.9554 3.3376
H    1.2733 8.5939 4.2643
H    2.2200 8.6270 -2.1014
H    1.3594 6.2339 4.2643
H    4.7692 2.3422 1.6969
H    3.7725 3.3922 2.3827
H    3.3572 -0.1504 2.0530
H    2.4482 6.2976 -2.1058
H    -1.0973 2.0210 -0.5407
O    2.3325 3.9113 -1.1223
O    1.2396 3.9251 3.2989
H    4.1414 2.0261 3.1345
X    1.4043 15.9022 1.4868
X    1.6562 -1.0253 0.8995
   0   27 S
   1    2 A
   1    6 A
   1   56 S
   2    3 A
   2   35 S
   3    4 A
   3    7 S
   4    5 A
   4   32 S
   5    6 A
   5    8 S
   6   36 S
   7   37 S
   7   38 S
   7   39 S
   8   40 S
   8   41 S
   8   42 S
   9   10 A
   9   32 A
   9   44 S
  10   11 A
  10   14 A
  11   12 A
  11   17 A
  12   13 A
  12   20 A
  13   32 A
  13   43 S
  14   15 A
  14   45 S
  15   16 A
  15   47 S
  16   17 A
  16   21 A
  17   18 A
  18   19 A
  18   22 A
  19   20 A
  19   51 S
  20   46 S
  21   33 A
  21   54 S
  22   33 A
  22   53 S
  23   28 A
  23   29 A
  23   33 S
  24   29 S
  24   48 S
  24   49 S
  24   55 S
  25   29 A
  25   30 A
  25   50 S
  26   28 S
  26   31 S
  26   34 S
  26   52 S
  27   28 A
  27   30 A
  30   57 S
