23
   21   22
S    0.0000 0.0000 0.0000
O    0.9203 0.5417 0.9586
O    -0.7511 0.9367 -0.8160
H    1.8989 -4.0980 -3.0119
H    2.3058 -0.2592 -1.8948
H    0.0988 -4.3648 -1.5969
H    -1.6823 -4.3251 0.3011
H    -2.0931 -0.0072 2.0757
H    -3.2041 -3.9011 2.0267
C    2.3134 -2.1645 -2.5778
C    1.6206 -3.3809 -2.4885
C    1.8705 -1.0798 -1.8374
C    0.7670 -1.2326 -1.0139
C    0.5360 -3.5467 -1.6437
C    0.1064 -2.4822 -0.8649
C    -0.9593 -2.4416 0.1585
C    -1.7561 -3.4680 0.6564
C    -1.1107 -1.1625 0.7373
C    -2.0098 -0.8724 1.7395
C    -2.6741 -3.2118 1.6969
C    -2.7896 -1.9196 2.2353
X    2.9333 -2.2966 -2.9527
X    -3.2694 -1.5304 2.6236
   0    1 D
   0    2 D
   0   12 S
   0   17 S
   3   10 S
   4   11 S
   5   13 S
   6   16 S
   7   18 S
   8   19 S
   9   10 A
   9   11 A
   9   21 S
  10   13 A
  11   12 A
  12   14 A
  13   14 A
  14   15 S
  15   16 A
  15   17 A
  16   19 A
  17   18 A
  18   20 A
  19   20 A
  20   22 S
