19
   17   18
C    0.0000 0.0000 0.0000
N    -0.3455 -0.9401 0.5875
C    -0.4537 -1.2232 -1.5770
N    -0.0721 -0.0095 -1.3799
C    1.2930 2.8321 -5.5118
Ag   0.6465 1.4161 -2.7559
C    1.7467 4.0553 -3.9348
H    2.2404 5.5145 -5.2721
C    -0.6484 -1.8102 -0.3730
H    -0.9475 -2.6824 -0.2396
C    1.9413 4.6423 -5.1388
H    0.9742 2.0855 -5.9621
N    1.6385 3.7722 -6.0993
H    1.8676 4.4596 -3.1076
N    1.3651 2.8416 -4.1319
H    0.3188 0.7466 0.4503
H    -0.5746 -1.6275 -2.4042
X    -0.2542 -1.2695 1.1630
X    1.5471 4.1016 -6.6748
   0    1 A
   0    3 A
   0   15 S
   1    8 A
   1   17 S
   2    3 A
   2    8 A
   2   16 S
   3    5 S
   4   11 S
   4   12 A
   4   14 A
   5   14 S
   6   10 A
   6   13 S
   6   14 A
   7   10 S
   8    9 S
  10   12 A
  12   18 S
