22
   20   21
H    0.0000 0.0000 0.0000
H    0.3722 0.0000 -2.4351
H    -1.9607 0.0000 -1.5714
H    -5.5038 0.0000 -7.2200
H    -5.8759 0.0000 -4.7849
H    -3.5431 0.0000 -5.6487
H    -5.5038 1.7578 -7.2200
H    -5.8759 1.7578 -4.7849
H    -3.5431 1.7578 -5.6487
H    0.0000 1.7578 0.0000
H    0.3722 1.7578 -2.4351
H    -1.9607 1.7578 -1.5714
C    0.4067 0.8789 -0.4881
C    -0.0371 0.8789 -1.9314
C    -1.5549 0.8789 -2.0659
C    -1.9882 0.8789 -3.5395
C    -5.9105 0.8789 -6.7320
C    -5.4667 0.8789 -5.2886
C    -3.9488 0.8789 -5.1542
C    -3.5155 0.8789 -3.6805
X    1.1594 0.8789 -0.7376
X    -6.6632 0.8789 -6.4824
   0   12 S
   1   13 S
   2   14 S
   3   16 S
   4   17 S
   5   18 S
   6   16 S
   7   17 S
   8   18 S
   9   12 S
  10   13 S
  11   14 S
  12   13 S
  12   20 S
  13   12 S
  13   14 S
  14   15 S
  15   19 T
  16   17 S
  16   21 S
  17   16 S
  17   18 S
  18   19 S
