26
   24   25
C    0.0000 0.0000 0.0000
C    0.1360 -0.1080 -1.4719
C    0.9460 0.7569 -2.1601
C    1.0086 0.7347 -3.5610
C    0.2369 -0.1701 -4.2617
C    0.2583 -0.1547 -5.7331
C    -1.3769 -2.0500 -5.7536
C    -1.3478 -2.0593 -4.2719
C    -2.0585 -2.9900 -3.5953
C    -2.0829 -2.9895 -2.1793
C    -1.4090 -2.0351 -1.4746
C    -1.5358 -1.9772 -0.0004
C    -0.6113 -1.0687 -2.1663
C    -0.5654 -1.1047 -3.5775
N    -0.8482 -0.9283 0.6297
N    -0.5379 -1.1081 -6.3923
O    0.5868 0.8337 0.6668
O    -2.2174 -2.7344 0.6302
O    0.9109 0.6485 -6.3824
O    -2.0707 -2.8032 -6.3914
H    1.4747 1.3817 -1.6781
H    1.5802 1.3362 -4.0256
H    -2.5459 -3.6496 -4.0747
H    -2.5719 -3.6579 -1.7182
X    -0.7005 -0.6351 1.1327
X    -0.8430 -1.2988 -6.8678
   0    1 A
   0   14 A
   0   16 S
   1    2 A
   1   12 A
   2    3 A
   2   20 S
   3    4 A
   3   21 S
   4    5 A
   4   13 A
   5   15 A
   5   18 S
   6    7 A
   6   15 A
   6   19 S
   7    8 A
   7   13 A
   8    9 A
   8   22 S
   9   10 A
   9   23 S
  10   11 A
  10   12 A
  11   14 A
  11   17 S
  12   13 A
  14   24 S
  15   25 S
