18
   16   17
C    0.0000 0.0000 0.0000
O    1.7630 -1.9860 -1.4097
O    2.7439 -2.1754 0.5758
C    0.6271 -1.1381 0.5126
C    1.7824 -1.8022 -0.1948
C    0.1218 -1.7803 1.6489
H    3.3983 -2.3696 0.1213
H    0.5535 -2.5320 1.9855
H    -4.4204 1.0693 2.1581
H    -1.5756 1.2317 0.2939
O    -2.7850 0.6857 3.6891
O    -3.7659 0.8750 1.7036
C    -1.0220 -1.3003 2.2794
C    -2.8044 0.5019 2.4742
C    -1.6491 -0.1622 1.7668
C    -1.1438 0.4800 0.6305
X    0.2797 0.3259 -0.6375
X    -1.3017 -1.6263 2.9169
   0    3 A
   0   15 A
   0   16 S
   1    4 D
   2    4 S
   2    6 S
   3    4 S
   3    5 A
   5    7 S
   5   12 A
   6    2 S
   8   11 S
   9   15 S
  10   13 D
  11    8 S
  11   13 S
  12   14 A
  12   17 S
  13   14 S
  14   15 A
