10
    8    9
C    0.0000 0.0000 0.0000
C    -1.2892 1.4827 -1.3137
C    -1.9286 0.3751 -1.3137
S    -1.9080 2.9165 -2.1995
S    -3.4798 0.1941 -2.1995
S    0.2620 1.6637 -0.4278
S    -1.3098 -1.0587 -0.4278
C    -3.2178 1.8578 -2.6273
X    0.5075 -0.1857 0.5216
X    -3.7253 2.0435 -3.1489
   0    5 A
   0    6 A
   0    8 S
   1    2 A
   1    3 A
   1    5 A
   2    4 A
   2    6 A
   3    7 A
   4    7 A
   7    9 S
