12
   10   11
C    0.0000 0.0000 0.0000
C    -1.3206 -0.2658 0.3576
C    -2.1273 -1.1667 -0.5364
C    -1.6324 -1.7826 -1.6148
C    -0.1803 -1.5877 -1.9085
C    0.6461 -0.8486 -0.9305
Br   2.4612 -0.5131 -1.4004
Br   0.5766 -2.6333 -3.3354
Br   -2.1663 0.8578 1.6206
Br   -3.9657 -1.5220 -0.0403
X    0.5109 0.5895 -0.0155
X    -2.2477 -2.2317 -1.7259
   0    1 A
   0    5 A
   0   10 S
   1    2 A
   1    8 S
   2    3 A
   2    9 S
   3    4 A
   3   11 S
   4    5 A
   4    7 S
   5    6 S
