12
   10   11
C    0.0000 0.0000 0.0000
C    1.3498 0.3965 0.1300
C    2.3004 0.0731 -0.8591
C    1.9408 -0.6858 -2.0125
C    0.5767 -1.0524 -2.1275
H    1.6144 0.8776 0.8800
C    -0.3404 -0.7147 -1.1564
H    3.1796 0.3609 -0.7575
F    0.1597 -1.6998 -3.2316
F    -1.6402 -1.1024 -1.3521
X    -0.5541 -0.0012 0.4720
X    2.5024 -0.7019 -2.4660
   0    1 A
   0    6 A
   0   10 S
   1    2 A
   1    5 S
   2    3 A
   2    7 S
   3    4 A
   3   11 S
   4    6 A
   4    8 S
   6    9 S
