26
   24   25
C    0.0000 0.0000 0.0000
C    0.6265 0.9386 -0.6716
C    0.5957 0.9558 -2.0769
C    -0.0565 0.0413 -2.7606
C    -0.6676 -0.8800 -2.1148
C    -0.6539 -0.9196 -0.6320
C    0.0000 -0.0172 -7.0436
C    0.6265 -0.9558 -6.3720
C    0.5957 -0.9730 -4.9667
C    -0.0565 -0.0586 -4.2830
C    -0.6676 0.8628 -4.9288
C    -0.6539 0.9024 -6.4116
C    -1.9479 2.9776 -4.9357
O    -1.3317 1.9564 -4.1642
H    -1.2363 -1.6906 -2.6795
H    1.2025 1.7499 -0.1152
H    1.1441 1.7752 -2.6490
H    -1.2006 -1.7330 -0.0496
H    1.2025 -1.7671 -6.9284
H    1.1441 -1.7924 -4.3946
H    -1.2107 1.7292 -6.9649
H    -3.0593 2.7503 -5.0487
H    -1.4623 3.0207 -5.9662
H    -1.8166 3.9814 -4.4115
X    -0.0171 -0.0086 0.7431
X    -0.0171 -0.0086 -7.7867
   0    1 A
   0    5 A
   0   24 S
   1    2 A
   1   15 S
   2    3 A
   2   16 S
   3    4 A
   3    9 S
   4    5 A
   4   14 S
   5   17 S
   6    7 A
   6   11 A
   6   25 S
   7    8 A
   7   18 S
   8    9 A
   8   19 S
   9   10 A
  10   11 A
  10   13 S
  11   20 S
  12   13 S
  12   21 S
  12   22 S
  12   23 S
