20
   18   19
C    0.0000 0.0000 0.0000
C    1.1632 -0.5755 -0.4694
C    1.5248 -0.3528 -1.7841
C    -0.2993 0.9639 -2.1685
H    1.6914 -1.1015 0.0874
C    -0.7424 0.7842 -0.8677
H    2.3069 -0.7483 -2.0954
H    -1.5307 1.1869 -0.5798
C    -1.0743 1.8017 -3.1297
C    -0.6994 1.9110 -4.4651
H    0.0625 1.4806 -4.7780
C    -2.8767 3.1565 -3.4621
C    -1.4781 2.6705 -5.3213
C    -2.5997 3.2980 -4.8127
H    -3.6203 3.5977 -3.1210
H    -3.1541 3.8032 -5.3621
N    0.8204 0.3983 -2.6361
N    -2.1467 2.4305 -2.6262
X    -0.1808 -0.4707 0.4975
X    -1.3553 3.0954 -5.8596
   0    1 A
   0    5 A
   0   18 S
   1    2 A
   1    4 S
   2    6 S
   2   16 A
   3    5 A
   3    8 S
   3   16 A
   5    7 S
   8    9 A
   8   17 A
   9   10 S
   9   12 A
  11   13 A
  11   14 S
  11   17 A
  12   13 A
  12   19 S
  13   15 S
