32
   30   31
H    0.0000 0.0000 0.0000
H    -0.2753 -1.0959 -0.9698
H    -4.3295 -3.4026 -1.4697
H    -4.6912 -2.4011 -2.6316
H    -1.2992 2.3182 0.5775
H    -1.3520 1.3675 1.8239
H    -4.7497 4.5378 2.9612
H    -4.4744 5.6337 3.9311
H    -0.4202 7.9403 4.4310
H    -0.0584 6.9388 5.5928
H    -3.4505 2.2196 2.3837
H    -3.3977 3.1703 1.1374
C    -2.9038 -0.9155 -1.0257
C    -4.0257 -3.0311 -2.3129
C    -2.5791 0.7681 0.3269
C    -1.8931 1.8039 1.1469
C    -1.8459 5.4533 3.9869
C    -0.7240 7.5689 5.2741
C    -2.1706 3.7697 2.6343
C    -2.8566 2.7338 1.8143
S    -2.4307 -2.2027 -2.0962
S    -2.3189 6.7405 5.0574
N    -1.9302 -0.1767 -0.3964
N    -0.5583 -0.4605 -0.4645
N    -3.8591 0.6245 0.1594
N    -4.0695 -0.4712 -0.7042
N    -2.8194 4.7145 3.3576
N    -4.1914 4.9983 3.4257
N    -0.8906 3.9133 2.8019
N    -0.6801 5.0090 3.6654
X    -3.8521 -3.3799 -2.9567
X    -0.8976 7.9176 5.9180
   0   23 S
   1   23 S
   2   13 S
   3   13 S
   4   15 S
   5   15 S
   6   27 S
   7   27 S
   8   17 S
   9   17 S
  10   19 S
  11   19 S
  12   20 S
  12   22 A
  12   25 A
  13   20 S
  13   30 S
  14   15 S
  14   22 A
  14   24 A
  15   19 S
  16   21 S
  16   26 A
  16   29 A
  17   21 S
  17   31 S
  18   19 S
  18   26 A
  18   28 A
  22   23 S
  24   25 A
  26   27 S
  28   29 A
