12
   10   11
C    0.0000 0.0000 0.0000
C    -0.6164 0.1926 1.2105
H    -3.4216 1.3916 0.0542
H    -0.1221 0.2549 -2.0413
H    -0.1660 -0.0290 2.0156
C    -1.8762 0.9109 -1.1706
C    -1.8835 0.7052 1.2476
C    -2.5329 1.0557 0.0371
Br   1.7883 -0.6635 -0.0582
C    -0.5823 0.3678 -1.2191
X    -2.1924 1.1006 -1.8358
X    -2.2131 0.7957 1.9214
   0    1 A
   0    8 S
   0    9 A
   1    4 S
   1    6 A
   2    7 S
   3    9 S
   5    7 A
   5    9 A
   5   10 S
   6    7 A
   6   11 S
