24
   22   23
C    0.0000 0.0000 0.0000
C    0.1469 -0.9772 -0.9602
C    0.5816 -0.6303 -2.2120
C    0.8757 0.6867 -2.5231
C    0.7260 1.6732 -1.5838
C    0.2890 1.3281 -0.3059
C    0.9711 3.0565 -1.8960
H    -0.0458 -1.8642 -0.7610
H    0.6803 -1.2880 -2.8618
H    1.1786 0.9024 -3.3756
H    0.1906 1.9855 0.3436
H    2.0599 5.5199 -4.2005
C    1.1432 4.2060 -2.1039
C    1.3209 7.8325 -1.4391
C    1.0973 6.4854 -1.2993
H    0.7428 6.1656 -0.5023
C    1.3809 5.6165 -2.2955
C    1.8837 6.1052 -3.5014
C    2.1167 7.4523 -3.6517
C    1.8390 8.3167 -2.6241
H    2.4642 7.7752 -4.4522
H    1.1257 8.4133 -0.7400
X    -0.5902 -0.3026 0.2195
X    2.1656 8.9773 -2.2200
   0    1 A
   0    5 A
   0   22 S
   1    2 A
   1    7 S
   2    3 A
   2    8 S
   3    4 A
   3    9 S
   4    5 A
   4    6 S
   5   10 S
   6   12 T
  11   17 S
  12   16 S
  13   14 A
  13   19 A
  13   21 S
  14   15 S
  14   16 A
  16   17 A
  17   18 A
  18   19 A
  18   20 S
  19   23 S
