35
   33   34
C    0.0000 0.0000 0.0000
C    0.8196 0.0127 1.0036
C    0.8137 0.3278 -1.0432
C    0.4337 -0.7217 2.3152
C    2.1366 0.3812 -0.7175
C    0.4894 0.9123 -2.4341
B    3.3621 -0.1499 1.3117
C    3.3621 0.9276 -1.3997
C    3.3621 1.5883 -2.8082
F    3.3621 0.5858 2.4891
F    3.3621 -1.4828 2.1854
H    6.1930 -1.6683 2.1898
H    5.7136 -0.4333 3.0261
H    7.2017 -0.5210 2.5397
H    5.6320 0.5451 -3.0833
H    7.1380 0.6887 -2.6718
H    6.1393 1.8665 -2.4099
H    4.1360 2.1423 -2.8918
C    6.7242 0.0000 0.0000
C    5.9046 0.0127 1.0036
C    5.9105 0.3278 -1.0432
C    6.2905 -0.7217 2.3152
C    4.5876 0.3812 -0.7175
C    6.2348 0.9123 -2.4341
H    0.5312 -1.6683 2.1898
H    1.0106 -0.4333 3.0261
H    -0.4775 -0.5210 2.5397
H    1.0922 0.5451 -3.0833
H    -0.4138 0.6887 -2.6718
H    0.5849 1.8665 -2.4099
H    2.5882 2.1423 -2.8918
N    4.5876 0.1321 0.5678
N    2.1366 0.1321 0.5678
X    -0.7490 -0.0178 0.0057
X    7.4732 -0.0178 0.0057
   0    1 A
   0    2 A
   0   33 S
   1    3 S
   1   32 A
   2    4 A
   2    5 S
   3   24 S
   3   25 S
   3   26 S
   4    7 S
   4   32 A
   5   27 S
   5   28 S
   5   29 S
   6    9 S
   6   10 S
   6   31 S
   6   32 S
   7    8 D
   7   22 S
   8   17 S
   8   30 S
  11   21 S
  12   21 S
  13   21 S
  14   23 S
  15   23 S
  16   23 S
  18   19 A
  18   20 A
  18   34 S
  19   21 S
  19   31 A
  20   22 A
  20   23 S
  22   31 A
