12
   10   11
C    0.0000 0.0000 0.0000
N    0.7844 -1.3246 0.0002
N    2.3236 -1.3094 0.0002
C    3.0800 0.0302 0.0002
N    2.2968 1.3580 0.0002
N    0.7558 1.3428 0.0002
C    -1.5404 -0.0172 0.0002
C    -3.0804 -0.0190 0.0006
C    4.6198 0.0340 0.0004
C    6.1596 0.0298 0.0006
X    -3.8304 -0.0199 0.0008
X    6.9096 0.0278 0.0007
   0    1 A
   0    5 A
   0    6 S
   1    2 A
   2    3 A
   3    4 A
   3    8 S
   4    5 A
   6    7 T
   8    9 T
  10    7 S
  11    9 S
