40
   38   39
C    0.0000 0.0000 0.0000
C    0.6370 1.1389 -0.4953
C    0.3604 2.3690 0.0917
C    -0.5286 2.4578 1.1557
C    -1.1465 1.3211 1.6357
C    -0.8778 0.0911 1.0364
C    0.3001 -1.3644 -0.5870
H    1.2423 1.0774 -1.2107
H    0.7776 3.1457 -0.2324
H    -0.7100 3.2938 1.5470
H    -1.3077 -0.6834 1.3513
H    1.1072 -1.3166 -1.1404
H    0.4649 -2.0068 0.1376
C    -3.1888 -9.1319 -5.7142
C    -2.4412 -9.4166 -6.8515
C    -3.4225 -7.6854 -5.3442
C    -2.4821 -5.7060 -4.1641
C    -1.4470 -5.1616 -3.2408
C    -3.7245 -10.1637 -4.9621
C    -3.5127 -11.4803 -5.3595
C    -2.2127 -10.7355 -7.2337
H    -4.2271 -9.9769 -4.1916
H    -3.9008 -12.1819 -4.8703
H    -2.5680 -12.6625 -6.7109
H    -2.0869 -8.7150 -7.3651
H    -4.2629 -7.6103 -4.8459
C    -0.6050 -3.2072 -1.9598
C    -1.7316 -3.7174 -2.8280
H    -2.4718 -5.1775 -4.9896
H    -1.4076 -5.7242 -2.4367
H    -0.5702 -5.2049 -3.6780
H    -3.3628 -5.5898 -3.7514
H    -3.5090 -7.1524 -6.1636
H    -0.4757 -3.8222 -1.2076
H    0.2220 -3.1935 -2.4826
N    -0.8663 -1.8291 -1.4247
N    -2.3056 -7.1365 -4.5157
C    -2.7358 -11.7696 -6.4724
X    -1.5772 1.5157 2.2471
X    -1.8453 -11.0480 -7.8405
   0    1 A
   0    5 A
   0    6 S
   1    2 A
   1    7 S
   2    3 A
   2    8 S
   3    4 A
   3    9 S
   4    5 A
   4   38 S
   5   10 S
   6   11 S
   6   12 S
   6   35 S
  13   14 A
  13   15 S
  13   18 A
  14   20 A
  14   24 S
  15   25 S
  15   32 S
  15   36 S
  16   17 S
  16   28 S
  16   31 S
  16   36 S
  17   27 S
  17   29 S
  17   30 S
  18   19 A
  18   21 S
  19   22 S
  19   37 A
  20   37 A
  20   39 S
  23   37 S
  26   27 S
  26   33 S
  26   34 S
  26   35 S
