14
   12   13
C    0.0000 0.0000 0.0000
C    0.7926 -1.3202 0.0000
C    2.3324 -1.2934 0.0002
C    3.0796 0.0534 0.0006
C    2.2870 1.3736 0.0002
C    0.7472 1.3468 -0.0002
C    -1.5398 -0.0260 0.0004
C    -3.0796 -0.0506 0.0010
H    0.2400 -2.3174 -0.0004
H    2.9196 -2.2706 0.0000
H    2.8400 2.3704 0.0002
H    0.1600 2.3240 -0.0006
X    3.8295 0.0664 0.0010
X    -3.8295 -0.0626 0.0013
   0    1 A
   0    5 A
   0    6 S
   1    2 A
   1    8 S
   2    3 A
   2    9 S
   3    4 A
   4    5 A
   4   10 S
   5   11 S
   6    7 T
  12    3 S
  13    7 S
