18
   16   17
C    0.0000 0.0000 0.0000
C    0.7700 -1.3336 0.0000
C    2.3100 -1.3336 0.0000
C    3.0800 0.0000 0.0000
C    2.3100 1.3336 0.0000
C    0.7700 1.3336 0.0000
C    -1.5400 0.0000 0.0000
C    -2.3100 1.3336 0.0000
C    -1.5400 2.6674 0.0000
C    0.0000 2.6674 0.0000
H    -2.1100 -0.9872 0.0000
H    -3.4500 1.3336 0.0000
H    -2.1100 3.6546 0.0000
H    0.5700 3.6546 0.0000
H    2.8800 -2.3210 0.0000
H    4.2200 0.0000 0.0000
X    0.3950 -1.9831 0.0000
X    2.6850 1.9831 0.0000
   0    1 A
   0    5 A
   0    6 A
   1    2 A
   2    3 A
   2   14 S
   3    4 A
   3   15 S
   4    5 A
   5    9 A
   6    7 A
   6   10 S
   7    8 A
   7   11 S
   8    9 A
   8   12 S
   9   13 S
  16    1 S
  17    4 S
