21
   19   20
C    0.0000 0.0000 0.0000
C    0.7700 -1.3336 0.0000
C    2.3100 -1.3336 0.0000
C    3.0800 0.0000 0.0000
C    2.3100 1.3336 0.0000
C    0.7700 1.3336 0.0000
O    -1.5064 -0.3202 0.0000
C    -1.6674 -1.8518 0.0000
C    -0.2606 -2.4782 0.0000
C    -0.0996 -4.0096 0.0000
C    -1.3454 -4.9148 0.0000
C    -2.7524 -4.2884 0.0000
C    -2.9132 -2.7570 0.0000
H    2.8800 -2.3208 0.0000
H    4.2200 0.0000 0.0000
H    0.2000 2.3208 0.0000
H    0.9418 -4.4732 0.0000
H    -1.2262 -6.0486 0.0000
H    -3.9546 -2.2934 0.0000
X    2.6850 1.9831 0.0000
X    -3.3593 -4.7291 0.0000
   0    1 A
   0    5 A
   0    6 A
   1    2 A
   1    8 A
   2    3 A
   2   13 S
   3    4 A
   3   14 S
   4    5 A
   5   15 S
   6    7 A
   7    8 A
   7   12 A
   8    9 A
   9   10 A
   9   16 S
  10   11 A
  10   17 S
  11   12 A
  12   18 S
  19    4 S
  20   11 S
