28
   26   27
C    0.0000 0.0000 0.0000
C    0.7698 -1.3336 0.0094
C    2.3098 -1.3336 0.0236
C    3.0796 0.0000 0.0284
C    2.3098 1.3336 0.0190
C    0.7698 1.3336 0.0048
C    -0.0002 2.6672 -0.0046
C    0.7698 4.0010 0.0000
C    2.3098 4.0010 0.0142
C    3.0798 2.6672 0.0238
C    3.0798 -2.6672 0.0330
C    2.3098 -4.0010 0.0284
C    0.7698 -4.0010 0.0142
C    -0.0002 -2.6672 0.0046
C    4.6194 0.0000 0.0426
C    6.1592 0.0000 0.0568
C    -1.5398 0.0000 -0.0142
C    -3.0796 0.0000 -0.0284
H    -1.1396 2.6668 -0.0356
H    0.2004 4.9876 -0.0272
H    2.8804 4.9876 -0.0024
H    4.2204 2.6668 0.0140
H    4.2202 -2.6678 0.0234
H    2.8804 -4.9888 0.0150
H    0.2004 -4.9888 -0.0098
H    -1.1396 -2.6678 -0.0262
X    6.9092 0.0000 0.0637
X    -3.8296 0.0000 -0.0353
   0    1 A
   0    5 A
   0   16 S
   1    2 A
   1   13 A
   2    3 A
   2   10 A
   3    4 A
   3   14 S
   4    5 A
   4    9 A
   5    6 A
   6    7 A
   6   18 S
   7    8 A
   7   19 S
   8    9 A
   8   20 S
   9   21 S
  10   11 A
  10   22 S
  11   12 A
  11   23 S
  12   13 A
  12   24 S
  13   25 S
  14   15 T
  16   17 T
  26   15 S
  27   17 S
