8
    6    7
C    0.0000 0.0000 0.0000
C    1.5390 -0.0374 -0.0064
C    3.0794 -0.0750 -0.0130
C    4.6178 -0.1166 -0.0202
C    6.1578 -0.1648 -0.0284
C    7.6964 -0.2168 -0.0372
X    -0.7498 0.0182 0.0031
X    8.4460 -0.2421 -0.0415
   0    1 T
   1    2 S
   2    3 T
   3    4 S
   4    5 T
   6    0 S
   7    5 S
