23
   21   22
N    0.0000 0.0000 0.0000
Cd   0.5388 -2.0751 0.7897
H    0.2569 -6.3668 3.7663
H    3.5886 -6.2680 1.5756
H    2.7754 -4.3152 0.5429
H    -0.3909 -4.4003 2.7811
H    0.8207 2.2167 -2.1869
H    -2.5110 2.1179 0.0038
H    -1.6978 0.1651 1.0365
H    1.4685 0.2502 -1.2017
C    2.0574 -6.4755 2.8456
C    0.8282 -5.9420 3.1380
C    2.7616 -5.8948 1.8547
C    2.2617 -4.7205 1.2320
C    0.4360 -4.7783 2.5058
C    -0.9798 2.3254 -1.2662
C    0.2493 1.7919 -1.5585
C    -1.6840 1.7447 -0.2753
C    -1.1841 0.5704 0.3474
C    0.6415 0.6282 -0.9264
N    1.0776 -4.1501 1.5794
X    2.5017 -6.9751 3.0985
X    -1.4241 2.8250 -1.5191
   0    1 S
   0   18 A
   0   19 A
   1   20 S
   2   11 S
   3   12 S
   4   13 S
   5   14 S
   6   16 S
   7   17 S
   8   18 S
   9   19 S
  10   11 A
  10   12 A
  10   21 S
  11   14 A
  12   13 A
  13   20 A
  14   20 A
  15   16 A
  15   17 A
  15   22 S
  16   19 A
  17   18 A
