8
    6    7
C    0.0000 0.0000 0.0000
H    -1.1081 3.3770 0.4795
H    0.9078 -0.0445 -0.2761
N    0.3402 2.2037 -0.0073
N    -0.5404 1.1289 0.2107
C    -0.2002 3.3325 0.2034
X    -0.3851 -0.6217 0.0899
X    0.1849 3.9542 0.1135
   0    2 S
   0    4 D
   0    6 S
   1    5 S
   3    4 S
   3    5 D
   5    7 S
