20
   18   19
C    0.0000 0.0000 0.0000
H    0.5537 0.6533 -0.5025
H    0.6062 -0.4958 0.6041
C    -0.8602 -3.2690 -1.8177
C    -1.3354 -2.2780 -0.7859
C    -0.5734 -0.9514 -0.9623
C    0.4556 -5.3893 -1.8872
C    0.4518 -3.9313 -1.3473
H    -0.4103 -5.8300 -1.7001
H    1.1792 -5.9146 -1.4595
H    1.2310 -3.4329 -1.6948
H    0.4964 -3.9333 -0.3582
H    -1.5531 -3.9612 -1.9567
H    -0.7107 -2.8047 -2.6785
H    -2.3063 -2.1233 -0.8928
H    -1.1739 -2.6390 0.1230
H    -1.1784 -0.3993 -1.5183
H    0.1877 -1.1870 -1.5504
X    -0.3452 0.4984 0.4341
X    0.7165 -5.3932 -2.4710
   0    1 S
   0    2 S
   0    5 S
   0   18 S
   3    4 S
   3    7 S
   3   12 S
   3   13 S
   4    5 S
   4   14 S
   4   15 S
   5   16 S
   5   17 S
   6    7 S
   6    8 S
   6    9 S
   6   19 S
   7   10 S
   7   11 S
