18
   16   17
C    0.0000 0.0000 0.0000
C    1.2721 -0.6086 0.3461
C    0.8266 -2.1163 0.3500
C    -0.0765 -4.7030 0.4266
H    2.1003 -0.2202 0.5135
C    1.2619 -6.7798 0.7690
C    -0.4973 -2.4063 0.1290
C    1.7624 -3.1527 0.6080
H    2.6640 -2.9683 0.7434
C    -1.0033 -3.7099 0.1801
H    -1.9052 -3.8958 0.0575
C    1.2670 -4.4763 0.6501
C    2.0952 -5.6873 0.8660
H    2.9442 -5.7228 1.1955
S    -0.4532 -6.4161 0.4771
S    -1.4497 -0.9833 -0.2166
X    0.0208 0.7125 -0.3972
X    1.3438 -7.4930 1.1405
   0    1 A
   0   15 A
   0   16 S
   1    2 A
   1    4 S
   2    6 A
   2    7 A
   3    9 A
   3   11 A
   3   14 A
   5   12 A
   5   14 A
   5   17 S
   6    9 A
   6   15 A
   7    8 S
   7   11 A
   9   10 S
  11   12 A
  12   13 S
