24
   22   23
H    0.0000 0.0000 0.0000
H    0.3510 0.8158 -1.2858
H    1.5052 -1.5647 -0.5294
H    1.8001 -0.8628 -1.8928
H    2.5376 -0.8187 1.4387
H    3.2793 1.2089 -1.8737
H    7.6455 1.3509 0.5473
H    7.2945 0.5351 1.8331
H    6.1404 2.9155 1.0767
H    5.8455 2.2136 2.4401
H    5.1079 2.1696 -0.8914
H    4.3663 0.1420 2.4210
C    0.2708 -0.0820 -0.9273
C    1.5722 -0.7001 -0.9643
C    2.7195 0.0561 -0.3274
C    3.0545 -0.2189 0.9512
C    3.4988 0.9799 -0.9990
C    7.3748 1.4329 1.4746
C    6.0733 2.0509 1.5116
C    4.9260 1.2948 0.8747
C    4.5910 1.5697 -0.4039
C    4.1467 0.3709 1.5463
X    -0.0076 -0.5630 -1.3880
X    7.6531 1.9139 1.9353
   0   12 S
   1   12 S
   2   13 S
   3   13 S
   4   15 S
   5   16 S
   6   17 S
   7   17 S
   8   18 S
   9   18 S
  10   20 S
  11   21 S
  12   13 S
  12   22 S
  13   14 S
  14   15 A
  14   16 A
  15   21 A
  16   20 A
  17   18 S
  17   23 S
  18   19 S
  19   20 A
  19   21 A
