14
   12   13
C    0.0000 0.0000 0.0000
C    0.7700 -1.3336 0.0000
N    2.3100 -1.3336 0.0000
C    3.0800 0.0000 0.0000
C    2.3100 1.3338 0.0000
N    0.7700 1.3338 0.0000
N    -1.5400 0.0000 0.0000
C    -2.3100 -1.3336 0.0000
C    -1.5400 -2.6674 0.0000
N    0.0000 -2.6674 0.0000
H    4.2200 0.0000 0.0000
H    -3.4500 -1.3336 0.0000
X    2.6850 1.9833 0.0000
X    -1.9150 -3.3169 0.0000
   0    1 A
   0    5 A
   0    6 A
   1    2 A
   1    9 A
   2    3 A
   3    4 A
   3   10 S
   4    5 A
   6    7 A
   7    8 A
   7   11 S
   8    9 A
  12    4 S
  13    8 S
