24
   22   23
C    0.0000 0.0000 0.0000
C    1.2340 -0.1413 0.6865
C    -1.0580 -0.7858 0.4379
C    -0.9261 -1.6614 1.4465
C    1.3580 -1.0020 1.7008
C    0.3311 -1.7235 2.1669
C    0.3909 -2.5928 3.3394
C    0.4983 -3.2330 4.3451
C    0.4968 -3.9566 5.5515
C    1.3585 -3.6141 6.6335
C    -0.3602 -5.0529 5.7605
C    -0.4125 -5.7294 6.9838
C    1.3211 -4.3249 7.8229
C    0.4620 -5.3890 8.0094
Br   3.0858 -0.7918 2.7481
Br   2.5390 -2.1684 6.4575
H    1.9800 0.3854 0.4238
H    -1.9011 -0.7023 0.0085
H    -1.6469 -2.2310 1.6866
H    -0.9181 -5.3440 5.0486
H    -1.0480 -6.4253 7.1138
H    1.9040 -4.0744 8.5292
X    -0.0246 0.5044 -0.5608
X    0.4409 -5.7896 8.6323
   0    1 A
   0    2 A
   0   22 S
   1    4 A
   1   16 S
   2    3 A
   2   17 S
   3    5 A
   3   18 S
   4    5 A
   4   14 S
   5    6 S
   6    7 T
   7    8 S
   8    9 A
   8   10 A
   9   12 A
   9   15 S
  10   11 A
  10   19 S
  11   13 A
  11   20 S
  12   13 A
  12   21 S
  13   23 S
