11
    9   10
C    0.0000 0.0000 0.0000
C    2.2017 -0.6388 0.8806
H    0.3823 -0.2625 -0.8736
H    -0.4955 -0.7775 0.3624
N    1.1008 0.3559 0.9301
H    1.4338 1.1843 0.9390
H    1.8194 -1.5507 0.9023
H    2.6972 -0.5357 0.0290
H    0.7679 0.6216 1.7148
X    -0.4792 0.6099 0.0897
X    2.6809 -0.7436 1.4278
   0    2 S
   0    3 S
   0    4 S
   0    9 S
   1    4 S
   1    6 S
   1    7 S
   1   10 S
   4    5 S
   4    8 S
