26
   20   21   22   23   24   25
C    0.0000 0.0000 0.0000
Cd   2.7705 0.7580 -0.4798
C    5.2453 -0.3029 -0.2328
Cd   -0.1213 2.6248 1.7538
C    0.2793 1.9270 4.3548
O    2.7212 2.1354 1.2992
O    1.5638 4.0063 1.3193
O    2.3825 2.2883 -2.1220
O    2.5958 0.2550 -2.8652
O    -2.5193 2.5061 1.8903
O    -1.5716 4.3463 1.2266
C    2.6492 3.3829 1.2741
O    -0.0720 1.2474 -0.0252
O    1.0854 -0.6234 -0.0452
C    2.3699 1.4559 -3.0808
O    0.2667 1.0946 3.3960
O    0.0534 3.1278 4.1392
C    -2.5961 3.6857 1.5068
O    5.1685 0.8767 -0.6162
O    4.2208 -0.9635 0.0474
X    -0.7037 -0.1964 0.0102
X    5.8598 -0.8122 -0.1558
X    0.3791 1.6475 5.0353
X    3.3529 3.5793 1.2638
X    2.2700 1.7354 -3.7612
X    -3.2106 4.1951 1.4298
   0   12 A
   0   13 A
   0   20 S
   1    5 S
   1    7 S
   1    8 S
   1   13 S
   1   18 S
   1   19 S
   2   18 A
   2   19 A
   2   21 S
   3    6 S
   3    9 S
   3   10 S
   3   12 S
   3   15 S
   3   16 S
   4   15 A
   4   16 A
   4   22 S
   5   11 A
   6   11 A
   7   14 A
   8   14 A
   9   17 A
  10   17 A
  11   23 S
  14   24 S
  17   25 S
