18
   14   15   16   17
Co   0.0000 0.0000 0.0000
O    0.7970 0.3105 -3.5808
Co   2.0986 -0.6720 -2.4823
O    -0.4360 0.9058 -1.8196
C    4.1708 -2.0603 -2.9351
O    2.9105 0.9376 -1.6361
O    1.7712 1.0355 0.2977
C    -0.1212 0.9669 -3.0186
O    3.9184 -2.0590 -1.7137
C    2.7349 1.3175 -0.4415
O    3.5114 -1.3599 -3.7559
C    0.6943 -2.6035 -1.6031
O    1.0954 -1.5567 -0.9503
O    0.8360 -2.6826 -2.8243
X    4.7086 -2.5386 -3.1422
X    -0.5068 1.3868 -3.5192
X    3.2851 1.7779 -0.2316
X    0.4237 -3.1254 -1.1317
   0    3 S
   0    6 S
   0   12 S
   1    2 S
   1    7 A
   2    5 S
   2    8 S
   2   10 S
   2   12 S
   2   13 S
   3    7 A
   4    8 A
   4   10 A
   4   14 S
   5    9 A
   6    9 A
   7   15 S
   9   16 S
  11   12 S
  11   13 D
  11   17 S
