35
   27   28   29   30   31   32   33   34
Li   0.0000 0.0000 0.0000
In   0.2081 1.5966 -2.7241
C    2.5485 1.5684 -1.6220
In   -0.2081 -1.5966 2.7241
C    -2.1234 1.6075 -1.5693
C    -0.1154 1.0357 3.4371
C    -0.1952 -3.8939 3.7917
O    -1.5051 -1.3819 0.9409
O    -2.4889 -1.6927 2.8332
O    1.1127 -1.3848 0.9304
O    2.0898 -1.7488 2.8052
O    0.0577 -1.1435 -2.1873
O    0.1635 -0.0133 -4.0129
C    -2.5485 -1.5684 1.6220
O    0.1779 2.8886 -4.4904
O    0.1875 3.7706 -2.5805
C    2.1234 -1.6075 1.5693
O    1.5051 1.3819 -0.9409
O    2.4889 1.6927 -2.8332
O    -1.1127 1.3848 -0.9304
O    -2.0898 1.7488 -2.8052
O    -0.0577 1.1435 2.1873
O    -0.1635 0.0133 4.0129
O    -0.1779 -2.8886 4.4904
O    -0.1875 -3.7706 2.5805
C    0.1154 -1.0357 -3.4371
C    0.1952 3.8939 -3.7917
X    3.2025 1.6130 -1.2495
X    -2.7663 1.6471 -1.2091
X    -0.0995 1.6777 3.8349
X    -0.1707 -4.5468 4.1175
X    -3.2025 -1.6130 1.2495
X    2.7663 -1.6471 1.2091
X    0.0995 -1.6777 -3.8349
X    0.1707 4.5468 -4.1175
   0    7 S
   0    9 S
   0   17 S
   0   19 S
   0   21 S
   0   11 S
   1   12 S
   1   14 S
   1   15 S
   1   17 S
   1   18 S
   1   19 S
   1   20 S
   2   17 S
   2   18 D
   2   27 S
   3    7 S
   3    8 S
   3    9 S
   3   10 S
   3   22 S
   3   23 S
   3   24 S
   4   19 S
   4   20 D
   4   28 S
   5   21 A
   5   22 A
   5   29 S
   6   23 A
   6   24 A
   6   30 S
   7   13 S
   8   13 D
   9   16 S
  10   16 D
  11   25 A
  12   25 A
  13   31 S
  14   26 A
  15   26 A
  16   32 S
  25   33 S
  26   34 S
