27
   21   22   23   24   25   26
O    0.0000 0.0000 0.0000
Cu   0.6451 1.1343 1.3502
O    3.4392 2.2604 0.0000
Cu   4.0991 1.1343 1.3502
Cu   2.3721 -1.8569 1.3502
O    3.6771 -1.8482 0.0000
O    4.7442 0.0000 2.7004
O    1.3050 2.2604 2.7004
O    1.0671 -1.8482 2.7004
O    0.0000 0.0000 2.7004
O    3.4392 2.2604 2.7004
O    3.6771 -1.8482 2.7004
C    0.2624 -1.0807 -0.4875
O    4.7442 0.0000 0.0000
O    1.3050 2.2604 0.0000
C    2.3721 2.5735 -0.4875
O    1.0671 -1.8482 0.0000
C    4.4818 -1.0807 -0.4875
C    4.4818 -1.0807 3.1879
C    2.3721 2.5735 3.1879
C    0.2624 -1.0807 3.1879
X    -0.2651 -1.0454 -1.0548
X    2.6359 2.8984 -1.0548
X    4.7456 -1.4410 -1.0548
X    4.7456 -1.4410 3.7552
X    2.6359 2.8984 3.7552
X    -0.2651 -1.0454 3.7552
   0    1 S
   0   12 A
   1    7 S
   1    9 S
   1   14 S
   2    3 S
   2   15 A
   3    6 S
   3   10 S
   3   13 S
   4    5 S
   4    8 S
   4   11 S
   4   16 S
   5   17 A
   6   18 A
   7   19 A
   8   20 A
   9   20 A
  10   19 A
  11   18 A
  12   16 A
  12   21 S
  13   17 A
  14   15 A
  15   22 S
  17   23 S
  18   24 S
  19   25 S
  20   26 S
