54
   51   52   53
H    0.0000 0.0000 0.0000
H    -3.2300 -5.3532 -1.1846
N    -5.6639 -8.2434 -0.2945
N    -7.3727 -4.8742 -5.3726
N    -2.2947 -3.1653 -2.0034
C    -5.6412 -10.6206 3.0973
C    -4.4340 -10.1866 2.5620
C    -4.4275 -9.3732 1.4347
C    -5.6250 -8.9939 0.8431
C    -6.8323 -9.4279 1.3784
C    -6.8420 -10.2413 2.5057
C    -4.7512 -7.3598 -0.5534
C    -4.8127 -6.5021 -1.7089
C    -5.8419 -6.6154 -2.5892
C    -10.7646 -4.8968 -7.7498
C    -10.2293 -6.1040 -7.3158
C    -9.1020 -6.1105 -6.5025
C    -8.5104 -4.9130 -6.1231
C    -9.0457 -3.7058 -6.5571
C    -10.1730 -3.6961 -7.3705
C    -7.1138 -5.7869 -4.4890
C    -5.9584 -5.7254 -3.6314
C    -5.0781 -4.6962 -3.7446
O    -3.7026 -7.0782 -0.0065
O    -7.6608 -6.8355 -4.2074
H    -6.3241 -8.3599 -0.8641
H    -3.6152 -10.4442 2.9679
H    -3.6022 -9.0751 1.0680
H    -7.6543 -9.1690 0.9742
H    -7.6673 -10.5380 2.8708
H    -6.4827 -7.3080 -2.4824
O    -3.4598 -2.8772 -3.9647
H    -6.8031 -4.2139 -5.4891
H    -10.6351 -6.9229 -7.5734
H    -8.7353 -6.9358 -6.2044
H    -8.6415 -2.8837 -6.2982
H    -10.5380 -2.8708 -7.6673
H    -5.1849 -4.0553 -4.4372
C    0.0825 0.2266 -2.0260
C    -0.3515 -0.3088 -3.2333
C    -1.1648 -1.4360 -3.2397
C    -1.5441 -2.0277 -2.0422
C    -1.1101 -1.4924 -0.8350
C    -0.2968 -0.3651 -0.8253
C    -3.1782 -3.4242 -2.9161
C    -4.0359 -4.5796 -2.8546
C    -3.9226 -5.4600 -1.8254
H    -2.1782 -3.7349 -1.3431
H    -0.0939 0.0971 -4.0521
H    -1.4629 -1.8027 -4.0650
H    -1.3690 -1.8966 -0.0129
X    -5.7205 -11.0439 3.7246
X    -11.3918 -4.8175 -8.1731
X    0.5059 0.8538 -1.9468
   0   43 S
   1   46 S
   2    8 S
   2   11 S
   2   25 S
   3   17 S
   3   20 S
   3   32 S
   4   41 S
   4   44 S
   4   47 S
   5    6 A
   5   10 A
   5   51 S
   6    7 A
   6   26 S
   7    8 A
   7   27 S
   8    9 A
   9   10 A
   9   28 S
  10   29 S
  11   12 S
  11   23 D
  12   13 A
  12   46 A
  13   21 A
  13   30 S
  14   15 A
  14   19 A
  14   52 S
  15   16 A
  15   33 S
  16   17 A
  16   34 S
  17   18 A
  18   19 A
  18   35 S
  19   36 S
  20   21 S
  20   24 D
  21   22 A
  22   37 S
  22   45 A
  31   44 D
  38   39 A
  38   43 A
  38   53 S
  39   40 A
  39   48 S
  40   41 A
  40   49 S
  41   42 A
  42   43 A
  42   50 S
  44   45 S
  45   46 A
