38
   34   35   36   37
C    0.0000 0.0000 0.0000
C    1.3816 0.0000 0.0696
C    1.7672 -1.3264 0.0930
N    0.6908 -2.1300 0.0348
C    -0.3856 -1.3264 -0.0234
C    3.0936 -1.7724 0.1184
C    3.5236 -3.1080 0.1478
C    4.8414 -3.5012 0.0118
C    4.8414 -4.8860 0.0118
C    3.5236 -5.2794 0.1478
N    2.7310 -4.1936 0.2650
C    3.0936 -6.6150 0.1184
C    1.7672 -7.0610 0.0930
C    1.3816 -8.3872 0.0696
C    0.0000 -8.3872 0.0000
C    -0.3856 -7.0610 -0.0234
N    0.6908 -6.2572 0.0348
C    -1.7120 -6.6150 -0.0488
C    -2.1420 -5.2794 -0.0782
C    -3.4598 -4.8860 0.0578
C    -3.4598 -3.5012 0.0578
C    -2.1420 -3.1080 -0.0782
N    -1.3496 -4.1936 -0.1954
C    -1.7120 -1.7724 -0.0488
H    -0.6456 0.8682 -0.0260
H    2.0272 0.8682 0.0956
H    -0.3406 -4.1936 -0.4216
H    5.7036 -2.8580 -0.1088
H    5.7036 -5.5292 -0.1088
H    2.0272 -9.2554 0.0956
H    -0.6456 -9.2554 -0.0260
H    -4.3220 -2.8580 0.1784
H    1.7222 -4.1936 0.4912
H    -4.3220 -5.5292 0.1784
X    3.6259 -1.2441 0.1160
X    3.6259 -7.1433 0.1160
X    -2.2443 -7.1433 -0.0464
X    -2.2443 -1.2441 -0.0464
  33   19 S
   0    1 A
   0    4 A
   0   24 S
   1    2 A
   1   25 S
   2    3 A
   2    5 A
   3    4 A
   4   23 A
   5    6 A
   6    7 A
   6   10 A
   7    8 A
   7   27 S
   8    9 A
   8   28 S
   9   10 A
   9   11 A
  10   32 S
  11   12 A
  12   13 A
  12   16 A
  13   14 A
  13   29 S
  14   15 A
  14   30 S
  15   16 A
  15   17 A
  17   18 A
  18   19 A
  18   22 A
  19   20 A
  20   21 A
  20   31 S
  21   22 A
  21   23 A
  22   26 S
  34    5 S
  35   11 S
  36   17 S
  37   23 S
