45
   37   38   39   40   41   42   43   44
Ni   0.0000 0.0000 0.0000
Ni   -1.2358 -3.2111 0.9217
Ni   -1.2785 -1.8864 5.7039
Ni   -0.0426 1.3247 4.7822
Ni   -0.6392 -0.9432 2.8520
C    -2.4231 -1.0650 8.3148
C    1.1447 -0.8214 -2.6109
O    -2.4002 -0.9109 7.1006
O    0.3857 -1.5255 6.7338
O    1.1128 0.5562 6.2623
O    -2.0830 -2.1382 8.8684
O    -1.2557 0.6932 1.7129
O    -0.0540 -1.6834 1.0826
O    0.1136 1.8044 -1.0778
O    -1.0447 2.2877 3.2802
O    -2.3362 -4.9486 0.7333
O    0.0566 -4.0200 -0.4855
O    1.6410 0.5790 1.0614
O    1.1040 0.1509 3.2028
O    1.1217 -0.9756 -1.3967
O    -1.6642 -0.3610 -1.0299
O    -2.3913 -2.4426 -0.5584
O    0.8045 0.2517 -3.1645
O    -0.0228 -2.5796 3.9910
O    -1.2245 -0.2030 4.6214
O    -1.3921 -3.6908 6.7817
O    -0.2338 -4.1741 2.4237
O    1.0578 3.0621 4.9706
O    -1.3351 2.1336 6.1894
C    1.9024 0.4972 2.2893
O    -2.3824 -2.0373 2.5011
O    -2.9195 -2.4654 4.6425
C    -3.1809 -2.3836 3.4146
C    -1.4239 1.8691 2.1526
C    0.1455 -3.7555 3.5513
C    1.2390 -0.5912 6.7612
C    -2.5175 -1.2952 -1.0573
X    -2.6677 -0.4964 8.7431
X    1.3892 -1.3900 -3.0392
X    2.6192 0.6513 2.4943
X    -3.8977 -2.5377 3.2096
X    -1.7432 2.3956 1.7095
X    0.4647 -4.2820 3.9944
X    1.8872 -0.7935 7.1029
X    -3.1657 -1.0930 -1.3990
   0   11 S
   0   12 S
   0   13 S
   0   17 S
   0   19 S
   0   20 S
   1   12 S
   1   15 S
   1   16 S
   1   21 S
   1   26 S
   1   30 S
   2    7 S
   2    8 S
   2   23 S
   2   24 S
   2   25 S
   2   31 S
   3    9 S
   3   14 S
   3   18 S
   3   24 S
   3   27 S
   3   28 S
   4   11 S
   4   12 S
   4   18 S
   4   23 S
   4   24 S
   4   30 S
   5    7 S
   5   10 D
   5   37 S
   6   19 S
   6   22 D
   6   38 S
   8   35 A
   9   35 A
  11   33 S
  14   33 D
  17   29 D
  18   29 S
  20   36 A
  21   36 A
  23   34 S
  26   34 D
  29   39 S
  30   32 S
  31   32 D
  32   40 S
  33   41 S
  34   42 S
  35   43 S
  36   44 S
