47
   41   42   43   44   45   46
Ni   0.0000 0.0000 0.0000
C    2.6334 5.5280 -0.6467
Ni   0.6331 6.8969 -0.1968
Ni   0.3165 3.4485 -0.0984
C    1.5385 1.5972 2.0014
C    1.3520 9.6254 -1.1034
C    -0.5207 9.6087 0.4519
H    1.0507 -1.9463 1.1435
N    0.4581 -1.9725 0.4270
N    0.1750 8.8694 -0.6238
O    -0.9456 4.3500 1.1951
O    -0.9344 6.5982 1.0382
O    -1.8797 0.2673 1.0441
O    -1.0119 1.8129 -0.2392
H    -0.4518 -3.6196 1.1454
O    -0.6233 4.1867 -1.7339
H    -1.0899 -2.2897 1.6766
H    -1.3790 -2.7683 0.2111
H    1.3725 -3.5944 -0.3410
H    0.5817 -2.7735 -1.4167
H    1.9603 -2.2468 -0.8875
O    -0.4526 6.4296 -1.8346
O    1.5787 2.5469 -1.3919
O    1.5675 0.2987 -1.2350
O    2.5128 6.6296 -1.2409
O    1.6450 5.0841 0.0424
O    1.2564 2.7103 1.5371
O    1.0856 0.4673 1.6378
H    -0.4176 8.8432 -1.3403
H    1.0849 10.5165 -1.3422
H    1.7230 9.1867 -1.8733
H    2.0121 9.6652 -0.4079
H    -0.7394 10.4914 0.1443
H    0.0514 9.6704 1.2199
H    -1.3272 9.1437 0.6907
C    -1.3165 5.4893 1.5084
C    -2.0004 1.3689 0.4499
C    -0.9054 5.2998 -2.1981
C    -0.7189 -2.7285 0.9066
C    1.1538 -2.7117 -0.6486
C    1.9496 1.4076 -1.7052
X    3.1153 4.9502 -0.6496
X    2.0333 1.3681 2.5698
X    -1.8325 5.7467 2.0520
X    -2.4822 1.9467 0.4528
X    -1.4002 5.5289 -2.7665
X    2.4656 1.1503 -2.2488
   0    8 S
   0   12 S
   0   13 S
   0   23 S
   0   27 S
   1   24 D
   1   25 S
   1   41 S
   2    9 S
   2   11 S
   2   21 S
   2   24 S
   2   25 S
   3   10 S
   3   13 S
   3   15 S
   3   22 S
   3   25 S
   3   26 S
   4   26 A
   4   27 A
   4   42 S
   5    9 S
   5   29 S
   5   30 S
   5   31 S
   6    9 S
   6   32 S
   6   33 S
   6   34 S
   7    8 S
   8    0 S
   8   38 S
   8   39 S
   9    2 S
   9   28 S
  10   35 A
  11   35 A
  12   36 D
  13   36 S
  14   38 S
  15   37 A
  16   38 S
  17   38 S
  18   39 S
  19   39 S
  20   39 S
  21   37 A
  22   40 A
  23   40 A
  35   43 S
  36   44 S
  37   45 S
  40   46 S
