35
   27   28   29   30   31   32   33   34
Zn   0.0000 0.0000 0.0000
Zn   -6.1992 1.0993 -1.5844
Zn   -3.0996 0.5497 -0.7922
C    -2.0414 -0.7297 1.7528
C    -5.0818 -1.5141 -1.9231
C    -0.9319 -0.5239 -2.5640
C    -8.3277 2.0088 -2.5089
C    -4.1578 1.8290 -3.3372
C    -1.1175 2.6134 0.3386
C    -5.2673 1.6233 0.9795
C    2.1284 -0.9095 0.9245
O    -1.5520 0.0130 2.5880
O    -1.8479 -0.6351 0.4631
O    -6.1568 -0.8390 -1.8719
O    -3.9656 -1.2060 -1.4684
O    0.0577 -0.7819 -1.8132
O    -1.7823 0.3664 -2.3643
O    -7.2264 2.4284 -2.8568
O    -8.4341 1.0747 -1.6972
O    -4.6472 1.0863 -4.1724
O    -4.3514 1.7344 -2.0475
O    -0.0424 1.9383 0.2875
O    -2.2336 2.3053 -0.1160
O    -6.2569 1.8812 0.2288
O    -4.4170 0.7329 0.7799
O    1.0272 -1.3290 1.2724
O    2.2349 0.0246 0.1128
X    -2.5362 -1.3362 1.6580
X    -4.9529 -2.1320 -2.2706
X    -0.7379 -0.8744 -3.1149
X    -8.8256 2.3203 -2.9942
X    -3.6631 2.4355 -3.2424
X    -1.2463 3.2313 0.6861
X    -5.4613 1.9738 1.5305
X    2.6264 -1.2210 1.4097
   0   12 S
   0   15 S
   0   21 S
   0   25 S
   0   26 S
   1   13 S
   1   17 S
   1   18 S
   1   20 S
   1   23 S
   2   12 S
   2   14 S
   2   16 S
   2   20 S
   2   22 S
   2   24 S
   3   11 D
   3   12 S
   3   27 S
   4   13 A
   4   14 A
   4   28 S
   5   15 A
   5   16 A
   5   29 S
   6   17 A
   6   18 A
   6   30 S
   7   19 D
   7   20 S
   7   31 S
   8   21 A
   8   22 A
   8   32 S
   9   23 A
   9   24 A
   9   33 S
  10   25 A
  10   26 A
  10   34 S
