29
   23   24   25   26   27   28
Zn   0.0000 0.0000 0.0000
Zn   -2.2424 -2.2424 0.0000
Zn   -2.2424 0.0000 -2.2424
Zn   0.0000 -2.2424 -2.2424
O    -1.1212 -1.1212 -1.1212
O    -0.2972 -0.2972 1.8754
O    -4.1178 -1.9452 -0.2972
O    -1.9452 1.8754 -1.9452
O    -1.9452 -1.9452 1.8754
O    -0.2972 1.8754 -0.2972
O    -4.1178 -0.2972 -1.9452
O    -0.2972 -1.9452 -4.1178
O    -1.9452 -4.1178 -0.2972
O    -1.9452 -0.2972 -4.1178
O    -0.2972 -4.1178 -1.9452
O    1.8754 -1.9452 -1.9452
O    1.8754 -0.2972 -0.2972
C    -1.1212 -1.1212 2.4616
C    -4.7040 -1.1212 -1.1212
C    -1.1212 2.4616 -1.1212
C    -1.1212 -1.1212 -4.7040
C    -1.1212 -4.7040 -1.1212
C    2.4616 -1.1212 -1.1212
X    -1.1212 -1.1212 3.2116
X    -5.4540 -1.1212 -1.1212
X    -1.1212 3.2116 -1.1212
X    -1.1212 -1.1212 -5.4540
X    -1.1212 -5.4540 -1.1212
X    3.2116 -1.1212 -1.1212
   0    4 S
   0    5 S
   0    9 S
   0   16 S
   1    4 S
   1    6 S
   1    8 S
   1   12 S
   2    4 S
   2    7 S
   2   10 S
   2   13 S
   3    4 S
   3   11 S
   3   14 S
   3   15 S
   5   17 A
   6   18 A
   7   19 A
   8   17 A
   9   19 A
  10   18 A
  11   20 A
  12   21 A
  13   20 A
  14   21 A
  15   22 A
  16   22 A
  23   17 S
  24   18 S
  25   19 S
  26   20 S
  27   21 S
  28   22 S
