31
   25   26   27   28   29   30
Ni   0.0000 0.0000 0.0000
H    -3.1934 -2.6599 -4.0715
H    0.1771 -2.4610 -1.8405
H    -2.6641 0.1862 -1.2850
H    3.1934 2.6599 4.0715
H    -0.1771 2.4610 1.8405
H    2.6641 -0.1862 1.2850
C    2.6021 -0.6150 -1.4713
C    -3.1336 -1.1690 -2.6960
C    -2.6707 -2.2564 -3.3882
C    -1.4045 -2.7530 -3.0563
C    -0.6746 -2.1116 -2.0748
C    -2.3319 -0.5770 -1.7429
C    -2.6021 0.6150 1.4713
C    3.1336 1.1690 2.6960
C    2.6707 2.2564 3.3882
C    1.4045 2.7530 3.0563
C    0.6746 2.1116 2.0748
C    2.3319 0.5770 1.7429
N    -1.1150 -1.0196 -1.4346
N    1.1150 1.0196 1.4346
O    1.5512 0.0644 -1.3514
O    2.9000 -1.6173 -0.7600
O    -1.5512 -0.0644 1.3514
O    -2.9000 1.6173 0.7600
X    3.1800 -0.6222 -1.9940
X    -3.6278 -0.6864 -2.7716
X    -1.3984 -3.3692 -3.3979
X    -3.1800 0.6222 1.9940
X    3.6278 0.6864 2.7716
X    1.3984 3.3692 3.3979
   0   19 S
   0   20 S
   0   21 S
   0   23 S
   1    9 S
   2   11 S
   3   12 S
   4   15 S
   5   17 S
   6   18 S
   7   21 S
   7   22 D
   7   25 S
   8    9 A
   8   12 A
   8   26 S
   9   10 A
  10   11 A
  10   27 S
  11   19 A
  12   19 A
  13   23 S
  13   24 D
  13   28 S
  14   15 A
  14   18 A
  14   29 S
  15   16 A
  16   17 A
  16   30 S
  17   20 A
  18   20 A
