59
   47   48   49   50   51   52   53   54   55   56   57   58
O    0.0000 0.0000 0.0000
O    1.9545 0.8651 -0.5867
Na   0.1396 -2.1770 -5.3770
C    2.9700 -3.0992 -7.4061
Zn   -0.6456 2.1643 -4.2979
Zn   2.0078 1.1051 -2.5353
Zn   -1.0749 0.4043 -1.5805
C    -2.3329 -2.7313 -7.9742
C    -0.4234 1.0119 -6.6444
Zn   -0.6456 -6.5183 -6.4561
Zn   2.0078 -5.4590 -8.2187
Zn   -1.0749 -4.7583 -9.1734
C    1.9471 -7.7558 -6.4256
C    -2.8881 2.4147 -2.5057
C    2.9700 -1.2548 -3.3479
H    0.1578 0.1253 -3.5133
C    1.1807 -4.5735 -10.9518
O    -1.0174 -6.4621 -4.5562
O    0.0942 -4.5465 -4.7888
O    -2.2777 -6.3101 -9.2607
O    -2.4264 -6.8992 -7.0886
O    3.4080 -4.1763 -7.8622
O    1.7604 -2.9112 -7.1339
O    -2.3562 -3.2957 -9.0810
O    -1.5301 -1.3856 -3.7307
O    2.5965 -6.8852 -7.0600
O    0.7082 -7.9224 -6.5076
O    0.1367 -5.1960 -7.6973
O    -0.0000 -4.3540 -10.7540
O    1.9545 -5.2190 -10.1672
C    -2.3329 -1.6227 -2.7798
C    -0.4234 -5.3658 -4.1096
C    1.9471 3.4019 -4.3284
O    -1.0174 2.1081 -6.1978
O    0.0942 0.1926 -5.9652
O    -2.2776 1.9562 -1.4933
O    -2.4264 2.5452 -3.6654
O    3.4080 -0.1776 -2.8918
O    1.7604 -1.4428 -3.6201
H    0.1578 -4.4793 -7.2407
O    -2.3562 -1.0583 -1.6730
O    -1.5301 -2.9683 -7.0233
C    1.1807 0.2195 0.1978
C    -2.8881 -6.7687 -8.2483
O    2.5965 2.5313 -3.6940
O    0.7082 3.5684 -4.2464
O    0.1367 0.8420 -3.0567
X    3.3915 -2.6274 -6.8474
X    -2.8466 -2.1812 -7.8817
X    -0.0132 1.3887 -6.9964
X    2.1564 -8.4639 -6.3887
X    -3.6491 2.5171 -2.7304
X    3.5441 -1.7266 -3.4089
X    1.8958 -3.9104 -10.8975
X    -2.7451 -2.1726 -3.3353
X    -1.0291 -5.7428 -3.8556
X    2.5468 4.1101 -3.9609
X    1.0310 -0.4433 0.4261
X    -3.5068 -6.8709 -8.7135
   0    6 S
   0   42 A
   1    5 S
   1   42 A
   2   18 S
   2   22 S
   2   24 S
   2   34 S
   2   38 S
   2   41 S
   3   21 A
   3   22 A
   3   47 S
   4   33 S
   4   36 S
   4   45 S
   4   46 S
   5   37 S
   5   44 S
   5   46 S
   6   35 S
   6   40 S
   6   46 S
   7   23 A
   7   41 A
   7   48 S
   8   33 A
   8   34 A
   8   49 S
   9   17 S
   9   20 S
   9   26 S
   9   27 S
  10   21 S
  10   25 S
  10   27 S
  10   29 S
  11   19 S
  11   23 S
  11   27 S
  11   28 S
  12   25 A
  12   26 A
  12   50 S
  13   35 A
  13   36 A
  13   51 S
  14   37 A
  14   38 A
  14   52 S
  15   46 S
  16   28 A
  16   29 A
  16   53 S
  17   31 A
  18   31 A
  19   43 A
  20   43 A
  24   30 A
  27   39 S
  30   40 A
  30   54 S
  31   55 S
  32   44 A
  32   45 A
  32   56 S
  42   57 S
  43   58 S
