89
   81   82   83   84   85   86   87   88
Gd   0.0000 0.0000 0.0000
H    -3.4267 -1.3127 -1.5194
H    -4.2917 -1.4155 -3.6463
H    -0.6876 -2.6939 -4.9777
H    0.2410 -4.7627 -3.2863
H    3.9724 -4.0678 -1.9698
H    3.3668 -1.9024 -1.5268
H    3.4267 1.3127 -1.5194
H    4.2917 1.4155 -3.6463
H    0.6876 2.6939 -4.9777
H    -0.2410 4.7627 -3.2863
H    -3.9724 4.0678 -1.9698
H    -3.3668 1.9024 -1.5268
H    -1.3127 3.4267 1.5194
H    -1.4155 4.2917 3.6463
H    -2.6939 0.6876 4.9777
H    -4.7627 -0.2410 3.2863
H    -4.0678 -3.9724 1.9698
H    -1.9024 -3.3668 1.5268
H    1.3127 -3.4267 1.5194
H    1.4155 -4.2917 3.6463
H    2.6939 -0.6876 4.9777
H    4.7627 0.2410 3.2863
H    4.0678 3.9724 1.9698
H    1.9024 3.3668 1.5268
C    -2.8921 -1.6112 -2.2197
C    -3.4108 -1.6663 -3.4855
C    -2.5863 -2.1104 -4.5409
C    -1.2564 -2.4431 -4.2860
C    -0.7989 -2.3893 -2.9807
C    0.5530 -2.8921 -2.6491
C    0.8894 -4.1889 -2.9472
C    2.1838 -4.6587 -2.7518
C    3.1111 -3.7766 -2.1653
C    2.7392 -2.4884 -1.8844
C    2.8921 1.6112 -2.2197
C    3.4108 1.6663 -3.4855
C    2.5863 2.1104 -4.5409
C    1.2564 2.4431 -4.2860
C    0.7989 2.3893 -2.9807
C    -0.5530 2.8921 -2.6491
C    -0.8894 4.1889 -2.9472
C    -2.1838 4.6587 -2.7518
C    -3.1111 3.7766 -2.1653
C    -2.7392 2.4884 -1.8844
C    -1.6112 2.8921 2.2197
C    -1.6663 3.4108 3.4855
C    -2.1104 2.5863 4.5409
C    -2.4431 1.2564 4.2860
C    -2.3893 0.7989 2.9807
C    -2.8921 -0.5530 2.6491
C    -4.1889 -0.8894 2.9472
C    -4.6587 -2.1838 2.7518
C    -3.7766 -3.1111 2.1653
C    -2.4884 -2.7392 1.8844
C    1.6112 -2.8921 2.2197
C    1.6663 -3.4108 3.4855
C    2.1104 -2.5863 4.5409
C    2.4431 -1.2564 4.2860
C    2.3893 -0.7989 2.9807
C    2.8921 0.5530 2.6491
C    4.1889 0.8894 2.9472
C    4.6587 2.1838 2.7518
C    3.7766 3.1111 2.1653
C    2.4884 2.7392 1.8844
N    -1.6124 -1.9844 -1.9698
N    1.4987 -2.0516 -2.1133
N    1.6124 1.9844 -1.9698
N    -1.4987 2.0516 -2.1133
N    -1.9844 1.6124 1.9698
N    -2.0516 -1.4987 2.1133
N    1.9844 -1.6124 1.9698
N    2.0516 1.4987 2.1133
O    -1.1537 -1.9207 -0.7312
O    1.1843 -0.8001 -1.9017
O    1.1537 1.9207 -0.7312
O    -1.1843 0.8001 -1.9017
O    -1.9207 1.1537 0.7312
O    -0.8001 -1.1843 1.9017
O    1.9207 -1.1537 0.7312
O    0.8001 1.1843 1.9017
X    -2.9194 -2.1783 -5.3625
X    2.3971 -5.4843 -2.9823
X    2.9194 2.1783 -5.3625
X    -2.3971 5.4843 -2.9823
X    -2.1783 2.9194 5.3625
X    -5.4843 -2.3971 2.9823
X    2.1783 -2.9194 5.3625
X    5.4843 2.3971 2.9823
   0   73 S
   0   74 S
   0   75 S
   0   76 S
   0   77 S
   0   78 S
   0   79 S
   0   80 S
   1   25 S
   2   26 S
   3   28 S
   4   31 S
   5   33 S
   6   34 S
   7   35 S
   8   36 S
   9   38 S
  10   41 S
  11   43 S
  12   44 S
  13   45 S
  14   46 S
  15   48 S
  16   51 S
  17   53 S
  18   54 S
  19   55 S
  20   56 S
  21   58 S
  22   61 S
  23   63 S
  24   64 S
  25   26 A
  25   65 A
  26   27 A
  27   28 A
  27   81 S
  28   29 A
  29   30 S
  29   65 A
  30   31 A
  30   66 A
  31   32 A
  32   33 A
  32   82 S
  33   34 A
  34   66 A
  35   36 A
  35   67 A
  36   37 A
  37   38 A
  37   83 S
  38   39 A
  39   40 S
  39   67 A
  40   41 A
  40   68 A
  41   42 A
  42   43 A
  42   84 S
  43   44 A
  44   68 A
  45   46 A
  45   69 A
  46   47 A
  47   48 A
  47   85 S
  48   49 A
  49   50 S
  49   69 A
  50   51 A
  50   70 A
  51   52 A
  52   53 A
  52   86 S
  53   54 A
  54   70 A
  55   56 A
  55   71 A
  56   57 A
  57   58 A
  57   87 S
  58   59 A
  59   60 S
  59   71 A
  60   61 A
  60   72 A
  61   62 A
  62   63 A
  62   88 S
  63   64 A
  64   72 A
  65   73 S
  66   74 S
  67   75 S
  68   76 S
  69   77 S
  70   78 S
  71   79 S
  72   80 S
