52
   48   49   50   51
N    0.0000 0.0000 0.0000
N    3.9780 3.8067 -0.8671
H    -3.4015 -2.5463 0.0280
H    -4.2939 1.5047 -0.1654
H    -1.7590 1.9588 -0.1654
H    2.4697 -1.2907 0.0557
H    2.8804 -3.6005 0.1939
H    -1.2023 -4.2007 0.1623
H    0.2349 1.7179 -1.8632
H    1.7985 3.3407 -2.0251
H    3.6424 2.1839 1.1810
H    2.0433 0.4663 1.5403
H    2.0078 5.6466 -0.1378
H    2.4184 7.8064 0.0399
H    6.3707 7.2812 -0.9867
H    7.9343 4.9912 -1.6816
H    5.2376 1.2678 -1.5039
H    7.3065 1.0665 -2.0488
C    -3.1019 -1.6445 -0.0083
C    -4.0909 -0.5938 -0.0766
C    -3.6625 0.7976 -0.1299
C    -2.1302 1.0823 -0.1240
C    -1.3128 -0.1575 -0.0474
C    -1.8423 -1.4187 0.0067
C    -0.7415 -2.2427 0.0750
C    0.5101 -1.3819 0.0648
C    1.7314 -1.8909 0.0904
C    1.9959 -3.2531 0.1643
C    0.8430 -4.0996 0.1911
C    -0.4766 -3.5919 0.1445
C    0.9302 0.8769 -0.1844
C    0.9180 1.7693 -1.2039
C    1.8735 2.7406 -1.2907
C    2.8282 2.9376 -0.5243
C    2.9242 2.0733 0.5654
C    1.9841 1.0349 0.7822
C    5.2877 5.5597 -0.9527
C    4.0293 5.0701 -0.7123
C    2.8780 5.9929 -0.3076
C    3.1149 7.2102 -0.2061
C    4.4435 7.7278 -0.4604
C    5.5096 6.9117 -0.8268
C    7.3574 4.2378 -1.6402
C    6.0383 4.4984 -1.2793
C    5.1546 3.2894 -1.2303
C    5.7702 2.0532 -1.5387
C    6.9820 1.9367 -1.8538
C    7.9236 3.0486 -1.9391
X    -4.7866 -0.6779 -0.0873
X    0.9291 -4.8427 0.2203
X    4.5659 8.4808 -0.3787
X    8.5795 2.9637 -2.1069
   0   22 A
   0   25 A
   0   30 S
   1   33 S
   1   37 A
   1   44 A
   2   18 S
   3   20 S
   4   21 S
   5   26 S
   6   27 S
   7   29 S
   8   31 S
   9   32 S
  10   34 S
  11   35 S
  12   38 S
  13   39 S
  14   41 S
  15   42 S
  16   45 S
  17   46 S
  18   19 A
  18   23 A
  19   20 A
  19   48 S
  20   21 A
  21   22 A
  22   23 A
  23   24 A
  24   25 A
  24   29 A
  25   26 A
  26   27 A
  27   28 A
  28   29 A
  28   49 S
  30   31 A
  30   35 A
  31   32 A
  32   33 A
  33   34 A
  34   35 A
  36   37 A
  36   41 A
  36   43 A
  37   38 A
  38   39 A
  39   40 A
  40   41 A
  40   50 S
  42   43 A
  42   47 A
  43   44 A
  44   45 A
  45   46 A
  46   47 A
  47   51 S
