52
   40   41   42   43   44   45   46   47   48   49   50   51
O    0.0000 0.0000 0.0000
C    -3.1391 1.0437 -3.9621
Dy   -0.0217 3.0959 2.2303
Dy   2.0978 2.5140 5.5438
Dy   -1.9419 0.9695 -0.8108
C    3.1198 3.9599 3.3388
O    -3.1213 2.8169 -0.0196
Dy   -1.1476 -1.0797 -4.1244
C    0.2851 3.6689 -0.8031
C    0.9693 -2.8438 -4.3131
C    0.4223 1.1875 -5.8437
C    1.0182 0.2266 0.7097
C    -2.9897 3.8461 0.7097
C    -0.2169 4.2794 5.3815
C    -2.4822 -2.2434 -1.9194
C    -2.4808 0.6062 2.2225
C    4.0677 0.5872 5.7326
C    0.0018 0.7219 7.2632
O    -1.5516 1.4769 2.2823
O    -2.8439 0.1043 1.1196
O    -0.1681 -0.0960 6.3418
O    0.6126 1.8193 7.1657
O    -0.4867 2.6561 -0.8628
O    0.7476 4.0812 0.2999
O    1.2187 1.4396 -4.9224
O    -0.6075 0.4684 -5.7462
O    0.8266 4.4692 5.9902
O    -0.3470 3.3022 4.5387
O    -2.7880 -2.6578 -3.0681
O    -1.7794 -1.1893 -1.7797
O    4.1477 1.4800 4.8736
O    3.0907 0.5214 6.5558
O    1.1402 1.2626 1.4195
O    -1.9792 4.0816 1.4391
O    -3.2219 -0.0137 -4.5708
O    -2.1801 1.2723 -3.1192
O    3.5011 4.3062 4.4875
O    2.1426 3.1536 3.1991
O    0.0893 -3.0140 -3.4542
O    0.9355 -1.8651 -5.1364
X    -3.6083 1.6016 -4.1086
X    3.3671 4.0617 2.5878
X    0.3603 3.8855 -1.5464
X    1.4984 -3.3757 -4.3609
X    0.4586 1.3340 -6.5989
X    1.5102 -0.3129 0.7288
X    -3.5003 4.4058 0.6901
X    -0.7298 4.7984 5.4900
X    -2.6098 -2.4763 -1.1636
X    -2.7061 0.5544 2.9599
X    4.5485 0.0120 5.8193
X    -0.1492 0.7010 8.0142
   0   11 A
   0    4 S
   1   34 D
   1   35 S
   1   40 S
   2   18 S
   2   23 S
   2   27 S
   2   32 S
   2   33 S
   2   37 S
   3   21 S
   3   26 S
   3   27 S
   3   30 S
   3   31 S
   3   36 S
   3   37 S
   4    6 S
   4   19 S
   4   22 S
   4   29 S
   4   35 S
   5   36 D
   5   37 S
   5   41 S
   6   12 A
   7   25 S
   7   28 S
   7   29 S
   7   34 S
   7   35 S
   7   38 S
   7   39 S
   8   22 A
   8   23 A
   8   42 S
   9   38 A
   9   39 A
   9   43 S
  10   24 D
  10   25 S
  10   44 S
  11   32 A
  11   45 S
  12   33 A
  12   46 S
  13   26 D
  13   27 S
  13   47 S
  14   28 D
  14   29 S
  14   48 S
  15   18 A
  15   19 A
  15   49 S
  16   30 A
  16   31 A
  16   50 S
  17   20 D
  17   21 S
  17   51 S
