52
   44   45   46   47   48   49   50   51
C    0.0000 0.0000 0.0000
C    -0.8419 -0.9243 0.6239
C    -1.3575 -0.6249 1.8864
C    -0.2326 1.4902 1.8669
C    -3.7464 0.7978 -2.3488
C    -3.1950 1.1518 -3.5610
C    -3.1887 -0.2319 -1.5991
C    -2.1205 0.4123 -4.0730
C    -1.6048 -0.6468 -3.3528
C    -2.1300 -0.9941 -2.1028
C    -1.6785 -2.2130 -1.3915
C    -1.1723 -2.2081 -0.0719
C    -1.0387 0.5749 2.5076
H    0.3620 -0.1945 -0.8566
H    -1.9300 -1.2459 2.3223
H    -0.0474 2.3256 2.2782
C    0.0000 -6.8569 0.0000
H    -3.5317 -0.4213 -0.7321
C    -0.8419 -5.9326 0.6239
C    -1.3575 -6.2320 1.8864
H    -0.8819 -1.1480 -3.7112
C    0.3126 -8.0553 0.6202
C    -3.1887 -6.6250 -1.5991
H    -3.5401 1.8927 -4.0460
C    -0.2326 -8.3470 1.8669
H    0.3620 -6.6623 -0.8566
C    -2.1300 -5.8627 -2.1028
C    -1.6785 -4.6439 -1.3915
C    -1.1723 -4.6488 -0.0719
H    -1.9300 -5.6110 2.3223
C    -1.6048 -6.2101 -3.3528
C    -1.0387 -7.4317 2.5076
C    -2.1205 -7.2692 -4.0730
H    -3.5317 -6.4356 -0.7321
H    -0.8819 -5.7089 -3.7112
H    -0.0474 -9.1824 2.2782
H    -3.5401 -8.7495 -4.0460
H    -0.6188 -3.4284 1.4530
H    -2.2057 -3.4284 -2.9197
C    -3.7464 -7.6546 -2.3488
C    -3.1950 -8.0087 -3.5610
C    -0.9429 -3.4284 0.5595
C    -1.8964 -3.4284 -2.0226
C    0.3126 1.1985 0.6202
X    -4.3699 1.1454 -2.0958
X    -1.8316 0.5940 -4.7357
X    -1.3318 0.7614 3.1756
X    0.7687 -8.5449 0.2855
X    -1.3318 -7.6181 3.1756
X    -1.8316 -7.4506 -4.7357
X    -4.3699 -8.0020 -2.0958
X    0.7687 1.6883 0.2855
   0    1 A
   0   13 S
   0   43 A
   1    2 A
   1   11 S
   2   12 A
   2   14 S
   3   12 A
   3   15 S
   3   43 A
   4    5 A
   4    6 A
   4   44 S
   5    7 A
   5   23 S
   6    9 A
   6   17 S
   7    8 A
   7   45 S
   8    9 A
   8   20 S
   9   10 S
  10   11 A
  10   42 A
  11   41 A
  12   46 S
  16   18 A
  16   21 A
  16   25 S
  18   19 A
  18   28 S
  19   29 S
  19   31 A
  21   24 A
  21   47 S
  22   26 A
  22   33 S
  22   39 A
  24   31 A
  24   35 S
  26   27 S
  26   30 A
  27   28 A
  27   42 A
  28   41 A
  30   32 A
  30   34 S
  31   48 S
  32   40 A
  32   49 S
  36   40 S
  37   41 S
  38   42 S
  39   40 A
  39   50 S
  43   51 S
