68
   60   61   62   63   64   65   66   67
C    0.0000 0.0000 0.0000
C    0.0000 6.3363 4.9826
C    3.2242 0.0000 4.9826
C    3.2242 6.3363 0.0000
Ni   3.8166 3.1682 2.4913
Ni   -0.5925 3.1682 2.4913
Ni   1.6121 5.3727 2.4913
Ni   1.6121 0.9636 2.4913
H    5.5658 4.2882 -0.2076
C    4.4019 5.9579 -0.5652
H    5.5658 2.0482 5.1902
C    -1.1777 5.9579 5.5478
H    -2.3416 4.2882 5.1902
C    4.4019 0.3784 5.5478
H    -2.3416 2.0482 -0.2076
C    -1.1777 0.3784 -0.5652
H    2.7321 7.1219 5.1902
H    2.7321 -0.7856 -0.2076
H    0.4921 7.1219 -0.2076
H    0.4921 -0.7856 5.1902
H    -2.3416 2.0482 5.1902
H    5.5658 2.0482 -0.2076
C    4.4019 5.9579 5.5478
C    4.4019 0.3784 -0.5652
H    5.5658 4.2882 5.1902
C    -1.1777 5.9579 -0.5652
H    -2.3416 4.2882 -0.2076
C    -1.1777 0.3784 5.5478
H    0.4921 -0.7856 -0.2076
H    0.4921 7.1219 5.1902
H    2.7321 -0.7856 5.1902
H    2.7321 7.1219 -0.2076
N    3.8363 4.4308 0.9147
N    -0.6121 4.4308 4.0680
N    3.8363 1.9055 4.0680
N    -0.6121 1.9055 0.9147
C    4.7803 4.7803 0.0000
C    -1.5561 4.7803 4.9826
C    4.7803 1.5561 4.9826
C    -1.5561 1.5561 0.0000
N    2.8747 5.3924 4.0680
N    2.8747 0.9440 0.9147
N    0.3495 5.3924 0.9147
N    0.3495 0.9440 4.0680
C    3.2242 6.3363 4.9826
C    3.2242 0.0000 0.0000
C    0.0000 6.3363 0.0000
C    0.0000 0.0000 4.9826
N    -0.6121 1.9055 4.0680
N    3.8363 1.9055 0.9147
N    -0.6121 4.4308 0.9147
N    3.8363 4.4308 4.0680
C    -1.5561 1.5561 4.9826
C    4.7803 1.5561 0.0000
C    -1.5561 4.7803 0.0000
C    4.7803 4.7803 4.9826
N    0.3495 0.9440 0.9147
N    0.3495 5.3924 4.0680
N    2.8747 0.9440 4.0680
N    2.8747 5.3924 0.9147
X    4.7645 6.3206 -1.0779
X    -1.5401 6.3206 6.0605
X    4.7645 0.0160 6.0605
X    -1.5401 0.0160 -1.0779
X    4.7645 6.3206 6.0605
X    4.7645 0.0160 -1.0779
X    -1.5401 6.3206 -1.0779
X    -1.5401 0.0160 6.0605
   0   15 A
   0   28 S
   0   56 A
   1   11 A
   1   29 S
   1   57 A
   2   13 A
   2   30 S
   2   58 A
   3    9 A
   3   31 S
   3   59 A
   4   32 S
   4   34 S
   4   49 S
   4   51 S
   5   33 S
   5   35 S
   5   48 S
   5   50 S
   6   40 S
   6   42 S
   6   57 S
   6   59 S
   7   41 S
   7   43 S
   7   56 S
   7   58 S
   8   36 S
   9   36 A
   9   60 S
  10   38 S
  11   37 A
  11   61 S
  12   37 S
  13   38 A
  13   62 S
  14   39 S
  15   39 A
  15   63 S
  16   44 S
  17   45 S
  18   46 S
  19   47 S
  20   52 S
  21   53 S
  22   44 A
  22   55 A
  22   64 S
  23   45 A
  23   53 A
  23   65 S
  24   55 S
  25   46 A
  25   54 A
  25   66 S
  26   54 S
  27   47 A
  27   52 A
  27   67 S
  32   36 A
  32   59 A
  33   37 A
  33   57 A
  34   38 A
  34   58 A
  35   39 A
  35   56 A
  40   44 A
  40   51 A
  41   45 A
  41   49 A
  42   46 A
  42   50 A
  43   47 A
  43   48 A
  48   52 A
  49   53 A
  50   54 A
  51   55 A
