35
   29   30   31   32   33   34
Zn   0.0000 0.0000 0.0000
C    1.9519 0.3765 2.4605
C    -1.0760 2.8768 0.2217
C    -1.1201 4.2649 0.1577
C    0.0423 4.9712 -0.1332
C    1.2034 4.2384 -0.3625
H    -1.9173 4.5920 0.5050
C    1.1441 2.8491 -0.3070
H    1.8795 2.3908 -0.5465
H    2.0056 4.6125 -0.7947
H    -1.7407 2.4320 0.5021
C    -1.9519 -0.3765 2.4605
C    1.0760 -2.8768 0.2217
H    1.7407 -2.4320 0.5021
C    1.1201 -4.2649 0.1577
H    -1.8795 -2.3908 -0.5465
C    -1.2034 -4.2384 -0.3625
H    1.9173 -4.5920 0.5050
C    -0.0423 -4.9712 -0.1332
C    -1.9563 0.4187 -2.4777
H    -2.0056 -4.6125 -0.7947
C    -1.1441 -2.8491 -0.3070
N    -1.5276 0.0263 -1.4941
N    1.5276 -0.0263 -1.4941
C    1.9563 -0.4187 -2.4777
N    1.5175 -0.0400 1.4860
N    0.0418 2.1703 -0.0202
N    -1.5175 0.0400 1.4860
N    -0.0418 -2.1703 -0.0202
X    2.2173 0.6398 3.0464
X    0.0423 5.7142 -0.1668
X    -2.2173 -0.6398 3.0464
X    -0.0423 -5.7142 -0.1668
X    -2.2194 0.6610 -3.0737
X    2.2196 -0.6610 -3.0737
   0   22 S
   0   23 S
   0   25 S
   0   26 S
   0   27 S
   0   28 S
   1   25 T
   1   29 S
   2    3 A
   2   10 S
   2   26 A
   3    4 A
   3    6 S
   4    5 A
   4   30 S
   5    7 A
   5    9 S
   7    8 S
   7   26 A
  11   27 T
  11   31 S
  12   13 S
  12   14 A
  12   28 A
  14   17 S
  14   18 A
  15   21 S
  16   18 A
  16   20 S
  16   21 A
  18   32 S
  19   22 T
  19   33 S
  21   28 A
  23   24 T
  24   34 S
