17
   13   14   15   16
Zn   0.0000 0.0000 0.0000
O    -1.3009 0.3702 -1.4358
O    1.5763 0.6763 -1.0511
O    1.3644 -1.4051 -1.6264
O    -3.0538 -0.6418 -0.5834
O    -0.5020 1.2560 1.4358
O    -0.5106 -1.6375 1.0511
O    1.5379 -1.2127 1.6264
O    0.3244 3.1036 0.5834
C    1.8736 -0.3040 -1.7682
C    -2.4644 -0.0731 -1.4912
C    0.4950 -1.8324 1.7682
C    -0.1806 2.4588 1.4912
X    2.3429 -0.2432 -2.3689
X    -2.8237 0.0359 -2.1447
X    0.3854 -2.2880 2.3700
X    -0.2531 2.8237 2.1432
   0    1 S
   0    2 S
   0    5 S
   0    6 S
   1   10 S
   2    9 S
   3    9 D
   4   10 D
   5   12 S
   6   11 S
   7   11 D
   8   12 D
   9   13 S
  10   14 S
  11   15 S
  12   16 S
