18
   12   13   14   15   16   17
H    0.0000 0.0000 0.0000
H    1.0632 1.8886 -0.3741
H    0.8997 3.9023 0.5031
H    2.3325 2.4361 1.3541
C    1.3796 1.3986 2.7688
C    1.0488 0.2999 1.7096
C    -0.0794 0.6508 0.7287
C    0.2057 2.0316 0.0787
C    0.5139 3.1864 1.0492
C    1.6431 2.7156 1.9921
H    2.2377 1.1421 3.1656
H    1.8459 0.2948 1.1385
X    0.9254 1.6800 3.3500
X    0.6940 -0.2639 1.9443
X    -0.8181 0.8743 1.0227
X    -0.1687 2.4107 -0.4907
X    -0.0051 3.7080 1.3494
X    2.2366 2.9833 2.3912
   0    6 S
   1    7 S
   2    8 S
   3    9 S
   4    5 S
   4    9 S
   4   10 S
   4   12 S
   5    6 S
   5   11 S
   5   13 S
   6    7 S
   6   14 S
   7    8 S
   7   15 S
   8    9 S
   8   16 S
   9   17 S
