54
   50   51   52   53
C    0.0000 0.0000 0.0000
C    -0.6733 -1.1295 -0.1557
C    0.6830 2.5163 0.1865
C    1.8367 1.8346 0.1084
C    -1.4190 -3.6073 -0.6195
C    -2.5476 -2.8822 -0.6270
C    -0.1582 6.6833 0.4436
C    0.7592 6.2205 -0.5005
C    -0.4264 4.4444 1.2607
C    0.4659 3.9782 0.3011
C    1.0659 4.8805 -0.5753
C    -0.7192 5.7974 1.3390
C    5.7867 3.4426 0.0119
C    4.8667 3.9435 0.9181
C    3.5760 3.4269 0.9579
C    3.2075 2.3943 0.0838
C    4.1383 1.9014 -0.8314
C    5.4233 2.4160 -0.8637
C    -0.9135 -7.8479 -1.0442
C    -1.8261 -7.1695 -1.8402
C    -1.9939 -5.7994 -1.7196
C    -1.2521 -5.0726 -0.7866
C    -0.3154 -5.7560 -0.0042
C    -0.1515 -7.1194 -0.1246
C    -6.5702 -4.0751 -1.4357
C    -6.0136 -2.9640 -2.0446
C    -4.7114 -2.5798 -1.7744
C    -3.9435 -3.3283 -0.9012
C    -4.4982 -4.4294 -0.2638
C    -5.8043 -4.7936 -0.5430
S    -0.7948 1.5534 0.2038
S    1.7510 0.0742 0.0419
S    0.0794 -2.7176 -0.2834
S    -2.4286 -1.1789 -0.2340
H    1.1749 6.8337 -1.0946
H    -0.8335 3.8362 1.8644
H    1.6852 4.5697 -1.2259
H    -1.3100 6.1152 2.0123
H    5.1175 4.6399 1.5122
H    2.9431 3.7744 1.5768
H    3.8904 1.2113 -1.4343
H    6.0580 2.0718 -1.4822
H    -2.3422 -7.6524 -2.4762
H    -2.6181 -5.3500 -2.2761
H    0.2180 -5.2731 0.6183
H    0.4833 -7.5672 0.4224
H    -6.5336 -2.4578 -2.6575
H    -4.3496 -1.8062 -2.1865
H    -3.9859 -4.9289 0.3599
H    -6.1815 -5.5538 -0.1111
X    0.0466 7.3023 0.4686
X    6.6322 3.2835 -0.0175
X    -1.2617 -8.4131 -1.0975
X    -7.3891 -3.8778 -1.5995
   0    1 S
   0   30 A
   0   31 A
   1   32 A
   1   33 A
   2    3 A
   2    9 S
   2   30 A
   3   15 S
   3   31 A
   4    5 A
   4   21 S
   4   32 A
   5   27 S
   5   33 A
   6    7 A
   6   11 A
   6   50 S
   7   10 A
   7   34 S
   8    9 A
   8   11 A
   8   35 S
   9   10 A
  10   36 S
  11   37 S
  12   13 A
  12   17 A
  12   51 S
  13   14 A
  13   38 S
  14   15 A
  14   39 S
  15   16 A
  16   17 A
  16   40 S
  17   41 S
  18   19 A
  18   23 A
  18   52 S
  19   20 A
  19   42 S
  20   21 A
  20   43 S
  21   22 A
  22   23 A
  22   44 S
  23   45 S
  24   25 A
  24   29 A
  24   53 S
  25   26 A
  25   46 S
  26   27 A
  26   47 S
  27   28 A
  28   29 A
  28   48 S
  29   49 S
