18
   14   15   16   17
O    0.0000 0.0000 0.0000
Zn   -0.0351 -1.2327 2.0116
O    1.7064 -0.6282 1.2162
Zn   0.6226 -4.5397 2.5063
O    2.2953 -3.6352 3.1560
O    0.6202 -2.2563 3.6155
C    -1.2596 -3.1516 0.8089
C    1.8471 -2.6209 3.7090
O    -1.1188 -5.1442 3.3018
O    0.5875 -5.7725 4.5179
C    1.2135 -0.0069 0.2174
C    -0.6260 -5.7656 4.3006
O    -1.7077 -2.1373 1.3620
O    -0.0326 -3.5162 0.9025
X    -1.8522 -3.3483 0.5624
X    2.4397 -2.4242 3.9555
X    1.7479 0.0677 -0.3759
X    -1.1603 -5.8402 4.8938
   0    1 S
   0   10 A
   1    2 S
   1    5 S
   1   12 S
   2   10 A
   3    4 S
   3    8 S
   3    9 S
   3   13 S
   4    7 A
   5    7 A
   6   12 A
   6   13 A
   6   14 S
   7   15 S
   8   11 A
   9   11 A
  10   16 S
  11   17 S
