60
   54   55   56   57   58   59
H    0.0000 0.0000 0.0000
H    3.9925 0.7731 0.0586
H    1.6453 2.0226 3.0941
H    -0.5103 -0.9092 -4.5870
H    0.0402 -3.5750 -7.6585
H    3.1297 -2.5699 -5.2004
H    4.3667 -4.2709 -6.2873
H    0.2969 -0.4237 -2.3859
H    -2.3195 -3.8379 -7.7036
H    6.4171 -5.2234 -6.6211
H    8.7582 -7.7068 -8.8311
H    4.7750 -7.4470 -9.5889
C    0.6377 1.0147 1.6575
C    0.7608 0.3761 0.4289
C    2.0093 0.2966 -0.1547
C    3.1396 0.8344 0.4700
C    2.9986 1.4554 1.6918
C    1.7445 1.5633 2.2682
C    1.4009 -1.6484 -4.7408
C    0.0495 -1.4937 -5.0872
C    -0.4670 -2.2112 -6.1800
C    0.3866 -3.0864 -6.9210
C    1.7226 -3.2256 -6.5647
C    2.2174 -2.4834 -5.4502
C    2.6318 -4.0297 -7.3473
C    3.8565 -4.4905 -7.0586
C    1.2370 -0.4546 -2.5010
C    1.9019 -0.9618 -3.5609
C    -2.6256 -3.0524 -7.2670
C    -1.8741 -2.1494 -6.5323
C    5.4281 -6.2656 -8.0869
C    6.5189 -5.8673 -7.3139
C    7.7646 -6.4360 -7.5822
C    7.9028 -7.3530 -8.6196
C    6.7765 -7.7559 -9.3507
C    5.5395 -7.1906 -9.0819
C    -7.3100 -4.5900 -8.6449
C    -7.4229 -3.7934 -7.5033
C    -6.2962 -3.1594 -6.9580
C    -5.0657 -3.3347 -7.5859
C    -4.9342 -4.1515 -8.7229
C    -6.0618 -4.7768 -9.2384
H    -8.0810 -5.0038 -9.0161
H    -6.3708 -2.6225 -6.1791
H    -4.0853 -4.2740 -9.1333
N    2.2823 -4.5894 -8.5425
N    3.2720 -5.3749 -8.9890
N    4.2430 -5.3255 -8.0554
N    3.2225 -0.8041 -3.3286
N    3.4019 -0.1948 -2.1307
N    2.1679 0.0062 -1.6350
N    -3.8874 -2.5669 -7.2210
N    -3.9214 -1.4288 -6.4993
N    -2.7091 -1.1845 -6.0920
X    -0.2714 0.7999 1.4462
X    3.3550 1.4710 2.2405
X    8.0840 -6.5013 -7.0582
X    7.2364 -7.9081 -9.7404
X    -8.3196 -3.9751 -7.6894
X    -5.5903 -4.8518 -9.6148
   0   13 S
   1   15 S
   2   17 S
   3   19 S
   4   21 S
   5   23 S
   6   25 S
   7   26 S
   8   28 S
   9   31 S
  10   33 S
  11   35 S
  12   13 A
  12   17 A
  12   54 S
  13   14 A
  14   15 A
  14   50 S
  15   16 A
  16   17 A
  16   55 S
  18   19 A
  18   23 A
  18   27 S
  19   20 A
  20   21 A
  20   29 S
  21   22 A
  22   23 A
  22   24 S
  24   25 A
  24   45 A
  25   47 A
  26   27 A
  26   50 A
  27   48 A
  28   29 A
  28   51 A
  29   53 A
  30   31 A
  30   35 A
  30   47 S
  31   32 A
  32   33 A
  32   56 S
  33   34 A
  34   35 A
  34   57 S
  36   37 A
  36   41 A
  36   42 S
  37   38 A
  37   58 S
  38   39 A
  38   43 S
  39   40 A
  39   51 S
  40   41 A
  40   44 S
  41   59 S
  45   46 A
  46   47 A
  48   49 A
  49   50 A
  51   52 A
  52   53 A
