34
   26   27   28   29   30   31   32   33
Na   0.0000 0.0000 0.0000
Na   -3.1272 -1.7484 -0.0073
C    -0.9465 -2.2274 -2.3339
C    -4.3800 -3.7760 -2.5281
C    -3.8429 0.4212 -2.5684
C    -0.2465 2.0840 -2.7388
O    -2.0707 -0.0444 1.2256
O    -1.5319 0.1141 3.3543
O    0.8325 1.7388 1.4216
O    0.5992 1.7290 3.7006
O    0.9383 -1.3912 1.6451
O    -0.2083 -1.9798 3.4478
O    -2.6571 -3.1951 1.7495
O    -2.0984 -3.7870 3.8215
O    -1.0564 -1.7040 -1.2329
O    -1.5953 -1.8625 -3.3616
O    -3.9597 -3.4873 -1.4289
O    -3.7263 -3.4774 -3.7079
O    -4.0655 -0.3573 -1.6524
O    -2.9189 0.2313 -3.4551
O    -0.4701 1.4467 -1.7569
O    -1.0288 2.0386 -3.8288
C    -2.1806 0.4790 2.3266
C    1.2529 2.0275 2.5208
C    0.7157 -2.1696 2.5611
C    -2.8807 -3.8324 2.7315
X    -0.4024 -2.7420 -2.3630
X    -4.9013 -4.3091 -2.6943
X    -4.3332 0.9648 -2.7212
X    0.2675 2.6283 -2.7641
X    -2.7248 0.9936 2.3557
X    1.7741 2.5607 2.6869
X    1.2060 -2.7132 2.7139
X    -3.3947 -4.3767 2.7567
   0    1 S
   0    6 S
   0    8 S
   0   10 S
   0   14 S
   0   20 S
   1    6 S
   1   12 S
   1   14 S
   1   16 S
   1   18 S
   2   14 S
   2   15 D
   2   26 S
   3   16 S
   3   17 D
   3   27 S
   4   18 S
   4   19 D
   4   28 S
   5   20 S
   5   21 D
   5   29 S
   6   22 S
   7   22 D
   8   23 S
   9   23 D
  10   24 S
  11   24 D
  12   25 S
  13   25 D
  22   30 S
  23   31 S
  24   32 S
  25   33 S
