28
   22   23   24   25   26   27
O    0.0000 0.0000 0.0000
O    -1.2604 0.1568 1.7495
Co   -0.5065 -1.2445 2.8866
C    -0.7804 0.2292 4.9769
C    -0.8702 -3.3933 1.1643
Co   3.2874 -1.2445 2.8866
O    -1.1969 -0.9170 4.5486
O    0.0232 0.7269 4.2590
O    -1.1536 -2.9228 2.2441
O    -0.0883 -2.8142 0.3288
Co   1.3905 -1.4478 0.2965
O    2.7809 0.0000 0.0000
O    4.0413 0.1568 1.7495
O    3.9778 -0.9170 4.5486
O    2.7577 0.7269 4.2590
O    3.9345 -2.9228 2.2441
O    2.8692 -2.8142 0.3288
O    1.3905 -1.1341 2.3497
C    -0.8609 0.5460 0.6515
C    3.6418 0.5460 0.6515
C    3.5613 0.2292 4.9769
C    3.6511 -3.3933 1.1643
X    -1.0560 0.5098 5.6269
X    -1.1303 -4.0464 0.8853
X    -1.1520 1.1628 0.3604
X    3.9329 1.1628 0.3604
X    3.8369 0.5098 5.6269
X    3.9113 -4.0464 0.8853
   0   10 S
   0   18 A
   1    2 S
   1   18 A
   2    6 S
   2    8 S
   2   17 S
   3    6 S
   3    7 D
   3   22 S
   4    8 A
   4    9 A
   4   23 S
   5   12 S
   5   13 S
   5   15 S
   5   17 S
   9   10 S
  10   11 S
  10   16 S
  10   17 S
  11   19 A
  12   19 A
  13   20 S
  14   20 D
  15   21 A
  16   21 A
  18   24 S
  19   25 S
  20   26 S
  21   27 S
