40
   34   35   36   37   38   39
C    0.0000 0.0000 0.0000
C    0.7595 -1.1504 0.0958
C    -0.6656 0.0887 1.2019
Cu   1.1659 -3.3861 2.0321
O    0.7360 -2.6863 3.8774
C    2.6944 -7.0022 3.3026
Cu   0.3450 -4.1854 5.1734
C    2.4384 -6.0760 2.3167
Cu   -0.7578 -1.3275 3.8328
C    2.0779 -6.5009 4.4331
C    -2.0224 -1.9436 7.7026
C    -1.8966 -1.1393 6.5861
C    -1.3483 -3.1014 7.3856
H    1.3419 -1.4867 -0.5731
H    -1.2629 0.7883 1.4405
H    2.0779 -6.9074 5.2901
H    2.7456 -6.1400 1.4196
H    -2.2486 -0.2636 6.4920
H    -1.2501 -3.8478 7.9656
N    0.5355 -1.7182 1.2960
N    1.7024 -5.0820 2.7975
C    3.2747 -3.5904 0.2543
N    1.4742 -5.3394 4.1178
N    -0.8555 -3.0263 6.1558
N    -1.1925 -1.8044 5.6507
N    -0.3541 -0.9410 1.9788
O    1.9949 -3.8391 0.3290
O    3.9574 -3.1174 1.1793
C    -1.2139 1.3709 4.2328
O    -1.8646 0.2688 3.9734
O    0.0192 1.4472 4.3704
O    0.3672 -5.4762 6.6315
O    1.9734 -4.2284 7.6103
C    1.2224 -5.2187 7.5842
X    -0.0576 0.6400 -0.3684
X    3.4668 -7.2128 3.4428
X    -2.7114 -2.3379 7.9721
X    3.6837 -3.7180 -0.3569
X    -1.9393 1.8210 3.9152
X    1.2481 -5.8746 7.9367
   0    1 A
   0    2 A
   0   34 S
   1   13 S
   1   19 A
   2   14 S
   2   25 A
   3    4 S
   3   19 S
   3   20 S
   3   26 S
   4    6 S
   4    8 S
   5    7 A
   5    9 A
   5   35 S
   6   22 S
   6   23 S
   6   31 S
   7   16 S
   7   20 A
   8   24 S
   8   25 S
   8   29 S
   9   15 S
   9   22 A
  10   11 A
  10   12 A
  10   36 S
  11   17 S
  11   24 A
  12   18 S
  12   23 A
  19   25 A
  20   22 A
  21   26 S
  21   27 D
  21   37 S
  23   24 A
  28   29 S
  28   30 D
  28   38 S
  31   33 S
  32   33 D
  33   39 S
