25
   20   21   22   23   24
O    0.0000 0.0000 0.0000
O    1.6980 -0.7674 -1.1989
Zn   0.4391 -0.9347 -5.9411
C    -0.3619 1.3604 -4.3063
O    -0.2610 0.8110 -3.2028
Zn   0.4391 -0.9347 -2.6715
C    -0.9499 -3.3330 -6.4950
Zn   1.1098 -3.6888 -4.3063
O    -0.2610 0.8110 -5.4098
C    1.1778 -0.3628 -8.5056
O    1.3466 -1.6028 -4.3063
O    2.2113 -5.0771 -4.3063
C    -0.9499 -3.3330 -2.1176
O    -0.0435 -3.9905 -6.0270
O    -1.0630 -2.1016 -6.3324
C    1.1778 -0.3628 -0.1070
O    0.0000 0.0000 -8.6126
O    1.6980 -0.7674 -7.4138
O    -0.0435 -3.9905 -2.5856
O    -1.0630 -2.1016 -2.2802
X    -0.5237 2.0920 -4.3063
X    -1.4788 -3.6635 -6.9155
X    1.6363 -0.3628 -9.0884
X    -1.4788 -3.6635 -1.6971
X    1.6363 -0.3628 0.4761
   0   15 D
   1    5 S
   1   15 S
   2    8 S
   2   10 S
   2   14 S
   2   17 S
   3    4 A
   3    8 A
   3   20 S
   4    5 S
   5   10 S
   5   19 S
   6   13 A
   6   14 A
   6   21 S
   7   10 S
   7   11 S
   7   13 S
   7   18 S
   9   16 D
   9   17 S
   9   22 S
  12   18 A
  12   19 A
  12   23 S
  15   24 S
