27
   21   22   23   24   25   26
O    0.0000 0.0000 0.0000
O    1.5599 -1.5744 -0.2054
O    2.8477 -2.9332 2.4066
O    1.4444 -2.2765 3.9745
O    2.8229 0.4038 1.9038
O    4.6855 -0.2263 3.0001
C    2.2945 -3.0922 3.5342
Cd   4.9840 -2.1612 1.9854
O    -0.6342 -2.5791 1.6804
Cd   1.1796 -1.1025 2.0135
Cd   -1.9889 -0.7164 0.8481
O    -0.1553 0.2809 3.1922
O    -1.9302 1.0827 2.0678
O    -2.6330 -2.1733 2.5339
C    3.7729 0.5892 2.7552
O    -3.5375 -0.1892 -0.7611
O    -2.3190 -2.0172 -1.0625
C    -1.5685 -2.8678 2.4656
C    -1.0664 1.1159 3.0055
C    -3.1540 -1.2076 -1.4700
C    0.7166 -0.7452 -0.6992
X    2.5320 -3.6940 3.8421
X    3.8144 1.2476 3.0889
X    -1.4425 -3.4863 2.8386
X    -1.0572 1.6866 3.4763
X    -3.5688 -1.2993 -1.9703
X    0.5356 -0.6984 -1.3887
   0    9 S
   0   10 S
   0   20 S
   1    9 S
   1   20 D
   2    6 S
   2    7 S
   2    9 S
   3    6 D
   3    9 S
   4    9 S
   4   14 A
   5    7 S
   5   14 A
   6   21 S
   8    9 S
   8   10 S
   8   17 S
   9   11 S
  10   12 S
  10   13 S
  10   15 S
  10   16 S
  11   18 A
  12   18 A
  13   17 D
  14   22 S
  15   19 A
  16   19 A
  17   23 S
  18   24 S
  19   25 S
  20   26 S
