41
   34   35   36   37   38   39   40
Zn   0.0000 0.0000 0.0000
N    -1.0669 1.0737 1.3371
Zn   -0.0267 -0.0267 4.0275
H    4.0330 2.9478 3.0733
N    -1.1004 1.0402 2.6904
H    2.1881 1.6966 2.5143
H    1.4528 1.0954 6.2902
N    -1.2594 -1.6741 -0.3169
N    -2.8761 -3.8423 -0.9900
N    -2.5894 2.5627 2.0137
O    -1.7125 -1.5206 4.8650
O    0.0794 -0.8263 5.8783
O    1.4674 -0.8717 0.9943
O    0.8450 -1.4941 3.0332
H    -2.9745 -4.0597 0.9541
H    -1.7233 -2.2148 1.5132
H    -1.1221 -1.4795 -2.2628
O    1.4938 1.6858 -0.8375
O    0.7996 -0.1061 -1.8509
C    3.5020 2.5953 3.7510
C    2.4022 1.8145 3.4115
C    1.9664 1.4706 5.6118
C    3.0554 2.2708 5.9437
C    -1.0020 -1.4665 5.8842
C    -1.9623 1.9983 0.9806
C    -2.0250 1.9356 3.0469
C    -2.6220 -3.5287 0.2765
C    -1.8412 -2.4289 0.6159
C    -1.4973 -1.9931 -1.5843
C    -2.2975 -3.0821 -1.9162
C    1.4398 0.9753 -1.8567
C    1.5652 -1.5919 2.0137
N    1.6474 1.2327 4.3443
N    3.8156 2.8494 5.0175
X    3.2187 2.4017 6.6384
X    -1.2134 -1.7898 6.5271
X    -2.0932 2.1616 0.2859
X    -2.1883 2.0664 3.7416
X    -2.4284 -3.2454 -2.6109
X    1.7631 1.1867 -2.4998
X    2.0946 -2.1213 2.0137
   0    1 S
   0    7 S
   0   12 S
   0   17 S
   0   18 S
   1    4 A
   1   24 A
   2    4 S
   2   10 S
   2   11 S
   2   13 S
   2   32 S
   3   19 S
   4   25 A
   5   20 S
   6   21 S
   7   27 A
   7   28 A
   8   26 A
   8   29 A
   9   24 A
   9   25 A
  10   23 A
  11   23 A
  12   31 A
  13   31 A
  14   26 S
  15   27 S
  16   28 S
  17   30 A
  18   30 A
  19   20 A
  19   33 A
  20   32 A
  21   22 A
  21   32 A
  22   33 A
  22   34 S
  23   35 S
  24   36 S
  25   37 S
  26   27 A
  28   29 A
  29   38 S
  30   39 S
  31   40 S
