52
   40   41   42   43   44   45   46   47   48   49   50   51
Cs   0.0000 0.0000 0.0000
O    0.2379 2.8891 1.4051
O    -0.8682 4.5966 2.3800
C    -0.3582 3.4527 -2.4517
C    -0.0848 3.5096 2.3573
In   4.0926 -1.3183 -0.0240
C    -2.9970 -1.8282 2.3573
In   -0.9046 4.2034 -0.0240
In   -3.1880 -2.8851 -0.0240
O    2.3831 -1.6506 1.4051
C    -0.9284 -4.4213 0.0065
O    4.4148 -1.5464 2.3800
O    -2.6210 -1.2385 1.4051
O    -3.5466 -3.0502 2.3800
C    5.7985 -3.3888 -0.0020
C    -5.8340 -3.3272 -0.0020
C    3.1693 -1.4161 -2.4517
O    6.1840 -2.2000 0.0065
O    4.5283 -3.6043 -0.0754
O    2.3981 -1.5535 -1.4995
O    4.3807 -1.2220 -2.3133
C    -2.8111 -2.0366 -2.4517
C    3.0818 -1.6814 2.3573
O    -2.4446 2.2734 0.1591
O    -3.0476 4.2413 0.1534
C    -3.3648 3.0146 0.0065
O    0.8573 5.7238 -0.0754
O    -1.1868 6.4555 0.0065
C    4.2931 1.4067 0.0065
O    0.1463 2.8536 -1.4995
O    -1.1321 4.4047 -2.3133
O    -0.7465 -3.2538 0.1591
O    -2.1493 -4.7600 0.1534
O    -5.3856 -2.1195 -0.0754
O    -4.9973 -4.2555 0.0065
C    0.0355 6.7160 -0.0020
O    -2.5444 -1.3001 -1.4995
O    -3.2486 -3.1828 -2.3133
O    3.1911 0.9804 0.1591
O    5.1969 0.5186 0.1534
X    -0.2803 3.2112 -3.1525
X    0.0109 3.2699 3.0496
X    -2.7755 -1.6643 3.0496
X    -0.7383 -5.0124 0.4106
X    5.9585 -4.0538 0.1266
X    -6.6696 -3.0480 0.1266
X    2.8577 -1.3278 -3.1525
X    -2.5773 -1.8836 -3.1525
X    2.7646 -1.6056 3.0496
X    -4.1277 3.2316 0.4106
X    4.8660 1.7808 0.4106
X    0.7108 7.1018 0.1266
   0    1 S
   0    9 S
   0   12 S
   0   19 S
   0   23 S
   0   29 S
   0   31 S
   0   36 S
   0   38 S
   1    4 S
   1    7 S
   2    4 D
   2    7 S
   3   29 S
   3   30 D
   3   40 S
   4   41 S
   5    9 S
   5   11 S
   5   17 S
   5   18 S
   5   19 S
   5   20 S
   5   38 S
   5   39 S
   6   12 S
   6   13 D
   6   42 S
   7   23 S
   7   24 S
   7   26 S
   7   27 S
   7   29 S
   7   30 S
   8   12 S
   8   13 S
   8   31 S
   8   32 S
   8   33 S
   8   34 S
   8   36 S
   8   37 S
   9   22 S
  10   31 S
  10   32 D
  10   43 S
  11   22 D
  14   17 A
  14   18 A
  14   44 S
  15   33 A
  15   34 A
  15   45 S
  16   19 S
  16   20 D
  16   46 S
  21   36 S
  21   37 D
  21   47 S
  22   48 S
  23   25 S
  24   25 D
  25   49 S
  26   35 A
  27   35 A
  28   38 S
  28   39 D
  28   50 S
  35   51 S
