36
   33   34   35
Cu   0.0000 0.0000 0.0000
H    2.4761 1.0028 -1.1601
H    4.4976 2.0111 -0.6850
H    3.2702 2.4377 3.1566
H    1.2671 1.4505 2.5551
H    -0.0012 2.7950 -1.0809
H    -0.3182 3.8957 -3.1004
H    -0.2109 0.2924 -4.9414
H    0.0821 -0.7046 -2.8782
H    -2.0087 -0.1374 2.3034
H    -2.2920 -1.2856 4.2899
H    1.4073 -2.8721 3.7829
H    1.5745 -1.6914 1.8036
C    2.6414 1.2974 -0.2724
C    3.8615 1.8847 0.0091
C    4.1630 2.2946 1.3156
C    3.1413 2.1407 2.2635
C    1.9398 1.5523 1.8925
C    -0.0563 2.2818 -1.8779
C    -0.2489 2.9487 -3.0815
C    -0.3390 2.2095 -4.2642
C    -0.1878 0.8312 -4.1595
C    -0.0043 0.2404 -2.9243
C    -1.3162 -0.7168 2.5996
C    -1.4930 -1.4017 3.7902
C    -0.4936 -2.2691 4.2600
C    0.6787 -2.3363 3.4922
C    0.7739 -1.6211 2.3094
N    1.6757 1.1211 0.6508
N    0.0554 0.9505 -1.7868
N    -0.2058 -0.8345 1.8406
Cl   -2.2648 -0.1392 -0.4112
Cl   1.3961 -1.8328 -0.8772
X    4.9120 2.3680 1.4447
X    -0.4529 2.5255 -4.9193
X    -0.6813 -2.6335 4.8741
   0   28 S
   0   29 S
   0   30 S
   0   31 S
   0   32 S
   1   13 S
   2   14 S
   3   16 S
   4   17 S
   5   18 S
   6   19 S
   7   21 S
   8   22 S
   9   23 S
  10   24 S
  11   26 S
  12   27 S
  13   14 A
  13   28 A
  14   15 A
  15   16 A
  15   33 S
  16   17 A
  17   28 A
  18   19 A
  18   29 A
  19   20 A
  20   21 A
  20   34 S
  21   22 A
  22   29 A
  23   24 A
  23   30 A
  24   25 A
  25   26 A
  25   35 S
  26   27 A
  27   30 A
