26
   20   21   22   23   24   25
C    0.0000 0.0000 0.0000
C    -3.4304 -4.1776 -0.4464
Mn   1.1049 -1.1551 2.7584
O    0.7637 -2.9475 3.9425
Cd   -1.2237 -2.6940 0.9899
O    -0.9544 -3.9067 2.7899
O    0.8448 0.1101 0.9751
O    -0.7858 -0.8785 -0.2397
C    -1.7909 -0.4387 3.1631
O    3.4574 -0.9349 2.4496
O    2.5188 -0.1792 4.2480
O    1.2787 -2.6640 1.0373
C    3.5627 -0.2877 3.4924
C    -0.0972 -3.8304 3.7376
O    0.1923 -4.2559 -0.0604
C    1.2852 -3.7125 0.3604
O    -2.1038 -1.3188 2.3143
O    -0.6058 -0.2820 3.5254
O    -2.6992 -4.6153 -1.3794
O    -3.1213 -3.2790 0.3567
X    0.2717 0.5852 -0.4039
X    -4.1187 -4.4761 -0.7640
X    -2.5328 -0.1058 3.1489
X    4.0180 0.0838 3.9291
X    -0.3481 -4.3957 4.1587
X    2.0766 -3.9167 0.4850
   0    6 A
   0    7 A
   0   20 S
   1   18 D
   1   19 S
   1   21 S
   2    3 S
   2    4 S
   2    6 S
   2    9 S
   2   10 S
   2   11 S
   2   17 S
   3   13 A
   4    5 S
   4    7 S
   4   11 S
   4   14 S
   4   16 S
   4   19 S
   5   13 A
   8   16 A
   8   17 A
   8   22 S
   9   12 A
  10   12 A
  11   15 S
  12   23 S
  13   24 S
  14   15 D
  15   25 S
