117
  113  114  115  116
Zn   0.0000 0.0000 0.0000
Zn   3.0378 0.1773 1.8742
Zn   -0.2497 2.8017 -2.1881
Zn   -2.7486 0.0339 2.2756
Zn   -0.0919 -3.0923 -1.9312
H    5.3257 -2.2073 1.0179
H    6.2415 -4.0594 -0.0362
H    2.7703 -4.6768 -1.9655
H    4.4510 -6.3072 -2.1310
H    5.1849 -6.4700 -0.7554
H    5.9347 -5.8231 -1.9712
H    2.7318 0.4443 5.2172
H    1.6884 0.7807 7.2626
H    -1.9001 0.4267 5.4893
H    -2.8341 -4.9701 -1.4137
H    -4.8498 -5.7146 -0.5366
H    -4.9369 -2.5563 1.9446
H    -6.6726 -5.4717 0.9038
H    -7.0777 -3.9739 1.1245
H    -6.3584 -4.7691 2.2699
H    -3.0760 4.7543 -1.7847
H    -6.1782 4.2327 0.7154
H    -5.1129 2.3987 1.6534
H    -5.0560 6.2336 -1.8989
H    -5.7085 6.4600 -0.4928
H    -6.3776 5.4823 -1.5203
H    -0.5838 -2.7300 -5.0307
H    -1.2141 -1.8472 -7.0818
H    -1.0778 1.8559 -5.5273
H    2.5004 4.9082 -2.2052
H    4.5927 5.7687 -1.6839
H    5.1514 2.8003 0.9666
H    6.8614 4.4841 0.6488
H    6.2677 5.8922 0.3025
H    6.9256 5.0224 -0.8220
H    -1.7126 -0.0791 -8.4194
H    -0.8509 1.1963 -8.1169
H    -2.3653 1.1601 -7.7135
H    -1.8289 0.8396 7.7763
H    -0.6564 1.8010 8.1721
H    -0.5772 0.2782 8.5374
C    2.7342 -3.0747 -0.7344
C    3.5026 -2.3303 0.1579
C    4.8153 -2.6956 0.4224
C    5.3597 -3.8052 -0.2055
C    4.6003 -4.5548 -1.0998
C    3.2891 -4.1812 -1.3680
C    5.0837 -5.8991 -1.5374
C    -0.3516 0.2244 4.2088
C    1.0366 0.2249 4.1327
C    1.7991 0.4459 5.2743
C    1.1745 0.6456 6.4920
C    -0.2228 0.6345 6.5871
C    -0.9772 0.4449 5.4265
C    -3.3153 -2.5833 0.7459
C    -2.6720 -3.3154 -0.2626
C    -3.2538 -4.4887 -0.7382
C    -4.4502 -4.9192 -0.2245
C    -5.0924 -4.2079 0.7839
C    -4.5197 -3.0452 1.2786
C    -6.4153 -4.6489 1.3167
C    -3.4618 2.4767 0.4985
C    -2.8452 3.1815 -0.5328
C    -3.4905 4.2892 -1.0960
C    -4.7259 4.6732 -0.6241
C    -5.3469 3.9787 0.4034
C    -4.7146 2.8763 0.9647
C    -5.5317 5.8225 -1.1949
C    -0.4463 -0.9658 -4.0508
C    -0.6798 -1.8026 -5.1335
C    -1.0685 -1.2942 -6.3512
C    -1.2148 0.0834 -6.5072
C    -0.9806 0.9431 -5.4284
C    -0.5962 0.4076 -4.1993
C    -4.5087 -0.1610 4.2278
C    -0.6452 4.6130 -3.8967
C    -0.1589 -4.7382 -3.7445
C    3.3612 2.7070 0.0190
C    2.5718 3.3363 -0.9285
C    3.0377 4.4893 -1.5697
C    4.2800 4.9983 -1.2520
C    5.0831 4.3669 -0.3006
C    4.6195 3.2275 0.3311
C    6.3942 5.0021 -0.0152
C    4.7510 0.1665 3.5618
C    -1.5690 0.6318 -7.7973
C    -0.8704 0.9169 7.8810
N    1.6046 -2.4987 -0.9095
N    1.5666 -1.4574 -0.0457
N    2.6683 -1.3848 0.5936
N    1.3500 0.1816 2.8959
N    0.1749 0.0823 2.2109
N    -0.8402 0.1810 2.9720
N    -2.5625 -1.5440 1.0122
N    -1.5121 -1.5797 0.1750
N    -1.5529 -2.6678 -0.5670
N    -1.6725 2.5608 -0.8105
N    -1.5770 1.5174 0.0989
N    -2.6541 1.4555 0.8981
N    1.4822 2.6203 -0.9780
N    1.5023 1.5560 -0.2036
N    2.6745 1.6264 0.4395
N    -0.3157 0.9204 -2.9454
N    -0.1706 -0.1302 -2.2147
N    -0.2589 -1.3513 -2.6790
O    0.3222 4.3685 -3.1927
O    -1.6174 3.9150 -3.8396
O    4.2530 1.3677 3.4610
O    4.6160 -0.6089 2.7817
O    0.9464 -4.2352 -3.4648
O    -1.1842 -4.3608 -3.2232
O    -3.8006 -1.2531 4.0566
O    -4.1998 0.7506 3.4096
X    -4.6946 0.1925 4.6728
X    -0.8703 4.9269 -4.4304
X    -0.4915 -5.5461 -3.7085
X    5.5392 0.4193 3.6271
   0   88 S
   0   91 S
   0   94 S
   0   97 S
   0  100 S
   0  103 S
   1   89 S
   1   90 S
   1  101 S
   1  107 S
   1  108 S
   2   96 S
   2   99 S
   2  102 S
   2  105 S
   2  106 S
   3   92 S
   3   93 S
   3   98 S
   3  111 S
   3  112 S
   4   87 S
   4   95 S
   4  104 S
   4  109 S
   4  110 S
   5   43 S
   6   44 S
   7   46 S
   8   47 S
   9   47 S
  10   47 S
  11   50 S
  12   51 S
  13   53 S
  14   56 S
  15   57 S
  16   59 S
  17   60 S
  18   60 S
  19   60 S
  20   63 S
  21   65 S
  22   66 S
  23   67 S
  24   67 S
  25   67 S
  26   69 S
  27   70 S
  28   72 S
  29   79 S
  30   80 S
  31   82 S
  32   83 S
  33   83 S
  34   83 S
  35   85 S
  36   85 S
  37   85 S
  38   86 S
  39   86 S
  40   86 S
  41   42 A
  41   46 A
  41   87 A
  42   43 A
  42   89 A
  43   44 A
  44   45 A
  45   46 A
  45   47 S
  48   49 A
  48   53 A
  48   92 A
  49   50 A
  49   90 A
  50   51 A
  51   52 A
  52   53 A
  52   86 S
  54   55 A
  54   59 A
  54   93 A
  55   56 A
  55   95 A
  56   57 A
  57   58 A
  58   59 A
  58   60 S
  61   62 A
  61   66 A
  61   98 A
  62   63 A
  62   96 A
  63   64 A
  64   65 A
  64   67 S
  65   66 A
  68   69 A
  68   73 A
  68  104 A
  69   70 A
  70   71 A
  71   72 A
  71   85 S
  72   73 A
  73  102 A
  74  111 A
  74  112 A
  74  113 S
  75  105 A
  75  106 A
  75  114 S
  76  109 A
  76  110 A
  76  115 S
  77   78 A
  77   82 A
  77  101 A
  78   79 A
  78   99 A
  79   80 A
  80   81 A
  81   82 A
  81   83 S
  84  107 A
  84  108 A
  84  116 S
  87   88 A
  88   89 A
  90   91 A
  91   92 A
  93   94 A
  94   95 A
  96   97 A
  97   98 A
  99  100 A
 100  101 A
 102  103 A
 103  104 A
