17
   13   14   15   16
Gd   0.0000 0.0000 0.0000
O    2.6329 2.4129 -1.6000
C    1.8021 -0.2241 2.7746
O    -0.1704 -2.9284 -2.2944
O    0.6403 -0.9672 -2.1127
O    -2.6194 -2.4275 1.6000
O    2.9325 -0.0688 2.2944
O    0.9118 -0.7169 2.1127
O    0.5032 2.1250 -1.0070
C    1.3939 2.7338 -1.6197
O    -2.1590 -0.3284 1.0070
C    -2.8383 -1.1665 1.6197
C    0.0765 -1.8144 -2.7746
X    1.6694 -0.4506 3.4755
X    1.2057 3.3854 -1.9461
X    -3.5075 -1.0334 1.9355
X    0.2930 -1.6644 -3.4744
   0    4 S
   0    7 S
   0    8 S
   0   10 S
   1    9 D
   2    6 D
   2    7 S
   2   13 S
   3   12 D
   4   12 S
   5   11 D
   8    9 S
   9   14 S
  10   11 S
  11   15 S
  12   16 S
