31
   28   29   30
N    0.0000 0.0000 0.0000
N    0.5646 -1.1916 0.2177
N    1.1041 -5.1538 4.5842
N    1.2201 -4.5689 3.3882
N    3.9113 -5.4997 -1.8029
N    3.1617 -4.9329 -0.8528
Cu   2.3640 -5.0816 1.8921
Cu   0.6926 -2.1865 1.8921
Cu   2.3640 -3.1515 -0.8374
C    4.2877 -6.7058 -1.3036
C    0.2478 -4.3733 5.2936
C    0.2478 0.2916 -1.3036
O    2.1517 -7.1096 2.4791
O    4.0587 -5.6899 3.1449
O    0.9472 -5.9217 1.3215
O    -1.1699 -1.3564 2.4791
O    1.0131 -0.4147 3.1449
O    -0.7434 -2.9934 1.3215
O    2.1517 -3.2741 -2.9452
O    4.0587 -2.1731 -1.8286
O    0.9472 -3.9695 -1.4393
N    3.9113 -6.7746 0.0000
N    3.1617 -5.6899 0.2177
N    -0.0000 -3.2415 4.5842
N    0.5646 -3.4335 3.3882
O    1.9792 -3.3737 1.0526
N    1.1041 -0.6374 -1.8029
N    1.2201 -1.5701 -0.8528
X    5.0565 -6.6909 -1.3906
X    -0.1786 -4.9560 5.5848
X    -0.1786 0.7438 -1.6431
   0    1 A
   0   11 A
   1    7 S
   1   27 A
   2    3 A
   2   10 A
   3    6 S
   3   24 A
   4    5 A
   4    9 A
   5    8 S
   5   22 A
   6   12 S
   6   13 S
   6   14 S
   6   22 S
   6   25 S
   7   15 S
   7   16 S
   7   17 S
   7   24 S
   7   25 S
   8   18 S
   8   19 S
   8   20 S
   8   25 S
   8   27 S
   9   21 A
   9   28 S
  10   23 A
  10   29 S
  11   26 A
  11   30 S
  21   22 A
  23   24 A
  26   27 A
