70
   67   68   69
C    0.0000 0.0000 0.0000
C    -2.8364 -0.5253 -0.2119
C    -2.8274 1.2762 -4.9385
C    0.0358 1.6674 -4.7913
B    -4.3468 -0.0581 -2.7624
H    -7.2909 -0.1296 -6.9382
H    -6.5444 -1.0639 -7.9533
H    -7.7491 -1.6182 -7.1159
H    -6.9333 0.8516 -5.5983
H    -6.7880 0.8583 -4.0376
H    -5.6347 1.4238 -4.9359
H    -2.8386 -3.6969 -3.3397
H    -2.3737 -2.2239 -3.0707
H    -3.5292 -2.8520 -2.2155
H    -4.3585 -5.0178 -5.9866
H    -3.0308 -4.5328 -5.3115
H    -4.2109 -5.0625 -4.4259
H    -8.4308 -1.7769 -0.2792
H    -8.8086 -0.6996 0.7943
H    -9.5573 -0.7286 -0.5811
H    -6.9914 -2.3692 -0.9999
H    -6.1197 -2.1792 -2.2916
H    -5.4514 -2.1010 -0.8755
H    -4.9999 3.7617 -1.9211
H    -3.8645 2.7022 -1.7003
H    -4.5954 2.7894 -3.0859
H    -8.0084 4.0321 -0.6294
H    -6.4639 4.2579 -0.4847
H    -7.1233 4.2355 -1.9059
H    0.9320 0.2079 -0.1091
H    -0.3666 0.5364 0.7055
H    -0.0961 -0.9298 0.2208
H    -3.7684 -0.6258 -0.4137
H    -2.4586 -1.3858 -0.0102
H    -2.7313 0.0536 0.5456
H    -3.7617 1.0751 -4.8522
H    -2.7157 2.2195 -5.0831
H    -2.4631 0.7935 -5.6820
H    0.9678 1.7501 -4.5730
H    -0.0648 1.0818 -5.5450
H    -0.3196 2.5324 -5.0095
C    -5.4771 -2.7432 -6.0810
C    -4.5402 -3.1841 -5.1283
C    -4.1490 -2.3131 -4.0921
C    -4.7355 -1.0418 -3.9713
C    -5.6846 -0.6231 -4.9225
C    -6.0225 -1.4582 -5.9950
C    -6.9914 -1.0282 -7.1032
C    -6.3187 0.7532 -4.8674
C    -3.1292 -2.8185 -3.0885
C    -3.9852 -4.5753 -5.2227
C    -7.8763 1.4662 -0.6552
C    -6.9228 2.3563 -1.1047
C    -5.7201 1.8811 -1.6605
C    -5.5239 0.4931 -1.8521
C    -6.5048 -0.4075 -1.3392
C    -7.6707 0.0805 -0.7334
C    -8.7147 -0.8695 -0.1447
C    -6.2427 -1.9021 -1.3805
C    -4.7033 2.8723 -2.1343
C    -7.1501 3.8600 -1.0227
C    -0.0503 0.7778 -2.4185
C    -0.7186 1.0952 -3.5970
C    -2.1104 0.8759 -3.6800
C    -2.8138 0.3303 -2.5921
C    -2.1287 0.0655 -1.3963
C    -0.7383 0.2883 -1.2938
X    -5.7174 -3.2139 -6.6091
X    -8.5227 1.7266 -0.3657
X    0.6880 0.8650 -2.3878
   0   29 S
   0   30 S
   0   31 S
   0   66 S
   1   32 S
   1   33 S
   1   34 S
   1   65 S
   2   35 S
   2   36 S
   2   37 S
   2   63 S
   3   38 S
   3   39 S
   3   40 S
   3   62 S
   4   44 S
   4   54 S
   4   64 S
   5   47 S
   6   47 S
   7   47 S
   8   48 S
   9   48 S
  10   48 S
  11   49 S
  12   49 S
  13   49 S
  14   50 S
  15   50 S
  16   50 S
  17   57 S
  18   57 S
  19   57 S
  20   58 S
  21   58 S
  22   58 S
  23   59 S
  24   59 S
  25   59 S
  26   60 S
  27   60 S
  28   60 S
  41   42 A
  41   46 A
  41   67 S
  42   43 A
  42   50 S
  43   44 A
  43   49 S
  44   45 A
  45   46 A
  45   48 S
  46   47 S
  51   52 A
  51   56 A
  51   68 S
  52   53 A
  52   60 S
  53   54 A
  53   59 S
  54   55 A
  55   56 A
  55   58 S
  56   57 S
  61   62 A
  61   66 A
  61   69 S
  62   63 A
  63   64 A
  64   65 A
  65   66 A
