52
   40   41   42   43   44   45   46   47   48   49   50   51
C    0.0000 0.0000 0.0000
Cs   0.1750 -3.4636 2.5060
In   4.2573 -4.8220 2.4585
In   -0.6899 0.7507 2.4585
C    0.1955 3.2609 2.3113
In   -3.0424 -6.3201 2.4585
C    4.3410 -2.1763 2.0655
C    -0.7930 -7.7154 2.0655
C    3.3593 -5.0323 4.9164
C    -2.7755 -5.4372 4.9164
O    3.3333 -2.5481 2.4045
O    5.3651 -2.9696 2.3565
O    2.5759 -5.1483 3.8992
C    3.2622 -5.0441 0.0000
O    4.6199 -4.8381 4.7356
O    4.4517 -4.7315 0.2486
O    2.5841 -5.1294 1.0737
C    -2.7372 -5.3473 0.0000
O    6.3385 -5.6409 2.4215
O    4.6897 -7.1328 2.4639
C    5.9885 -6.8439 2.3113
C    -5.6590 -6.8084 2.3113
O    -2.1972 -1.1864 2.4045
O    -2.8480 0.7839 2.3565
O    0.4334 -0.5423 3.8992
O    -0.8573 1.0728 4.7356
O    -0.8655 0.8738 0.2486
O    0.4129 -0.5447 1.0737
C    -3.0230 -0.4997 2.0655
O    -1.0213 2.9625 2.4215
O    1.0952 2.2805 2.4639
C    -0.0588 0.0781 4.9164
O    -0.6112 -6.6568 2.4045
O    -1.9921 -8.2056 2.3565
O    -2.4843 -4.7008 3.8992
O    -3.2376 -6.6260 4.7356
O    -3.0613 -6.5337 0.2486
O    -2.4720 -4.7173 1.0737
O    -4.7922 -7.7130 2.4215
O    -5.2598 -5.5391 2.4639
X    0.0492 -0.2354 -0.7177
X    0.8491 3.6114 2.2463
X    5.0384 -1.7910 2.4681
X    -0.6423 -8.3946 2.4681
X    3.0613 -4.9200 5.6073
X    -2.5198 -5.3070 5.6073
X    2.9698 -4.9406 -0.7177
X    -2.4939 -5.2156 -0.7177
X    6.1173 -7.4743 2.2463
X    -6.4410 -6.5287 2.2463
X    -3.8705 -0.2063 2.4681
X    -0.0163 -0.1646 5.6073
   0   26 D
   0   27 S
   0   40 S
   1    2 S
   1    3 S
   1    5 S
   1   10 S
   1   12 S
   1   16 S
   1   22 S
   1   24 S
   1   27 S
   1   32 S
   1   34 S
   1   37 S
   2   10 S
   2   11 S
   2   12 S
   2   14 S
   2   15 S
   2   16 S
   2   18 S
   2   19 S
   3   22 S
   3   23 S
   3   24 S
   3   25 S
   3   26 S
   3   27 S
   3   29 S
   3   30 S
   4   29 A
   4   30 A
   4   41 S
   5   32 S
   5   33 S
   5   34 S
   5   35 S
   5   36 S
   5   37 S
   5   38 S
   5   39 S
   6   10 S
   6   11 D
   6   42 S
   7   32 S
   7   33 D
   7   43 S
   8   12 S
   8   14 D
   8   44 S
   9   34 S
   9   35 D
   9   45 S
  13   15 D
  13   16 S
  13   46 S
  17   36 D
  17   37 S
  17   47 S
  18   20 A
  19   20 A
  20   48 S
  21   38 A
  21   39 A
  21   49 S
  22   28 S
  23   28 D
  24   31 S
  25   31 D
  28   50 S
  31   51 S
