45
   37   38   39   40   41   42   43   44
Zn   0.0000 0.0000 0.0000
Zn   -5.6968 3.3867 0.7578
Zn   -2.8484 1.6934 0.3789
O    -1.2146 -1.2260 -0.8994
O    -6.1053 1.9204 1.9290
O    -6.4539 2.4450 -1.1315
O    -4.3719 2.7657 -0.7466
O    -2.6664 3.3261 1.6175
O    -4.2317 0.7754 1.6205
H    4.7126 -1.6291 -0.2243
H    1.0467 -2.9707 0.2796
H    3.1485 0.2207 -0.3404
O    -4.4822 4.6127 1.6572
H    -10.4094 5.0158 0.9821
H    -6.7435 6.3574 0.4782
H    -8.8453 3.1660 1.0982
C    -0.3377 2.4574 -1.3407
C    -0.4371 0.9706 2.2910
C    3.7892 -1.6779 -0.1297
C    1.7631 -2.3942 0.1407
C    2.9237 -0.6704 -0.2030
C    -2.4206 -0.9290 -1.2247
C    -5.3591 0.9293 2.0985
C    -5.2597 2.4161 -1.5332
C    -9.4859 5.0646 0.8875
C    -7.4598 5.7809 0.6171
C    -8.6204 4.0571 0.9608
C    -3.2762 4.3157 1.9825
N    1.6472 -1.1491 -0.0426
N    3.0566 -2.7846 0.1086
N    -7.3439 4.5358 0.8004
N    -8.7533 6.1713 0.6492
O    0.4085 1.4663 -1.1712
O    0.7572 0.9417 1.8893
O    -1.3249 0.6210 1.5044
O    -3.0304 0.0606 -0.8597
O    -1.4650 2.6114 -0.8627
X    -0.0766 2.8225 -1.9866
X    -0.3476 1.3418 2.8365
X    -3.0002 -1.3467 -1.3497
X    -5.6202 0.5642 2.7444
X    -5.3492 2.0449 -2.0787
X    -2.6966 4.7334 2.1075
X    3.1610 -3.4909 0.3094
X    -8.8578 6.8776 0.4484
   0    3 S
   0   28 S
   0   32 S
   0   33 S
   0   34 S
   1    4 S
   1    5 S
   1    6 S
   1   12 S
   1   30 S
   2    6 S
   2    7 S
   2    8 S
   2   34 S
   2   35 S
   2   36 S
   3   21 A
   4   22 A
   5   23 D
   6   23 S
   7   27 A
   8   22 A
   9   18 S
  10   19 S
  11   20 S
  12   27 A
  13   24 S
  14   25 S
  15   26 S
  16   32 A
  16   36 A
  16   37 S
  17   33 D
  17   34 S
  17   38 S
  18   20 A
  18   29 A
  19   28 A
  19   29 A
  20   11 S
  20   18 A
  20   28 A
  21   35 A
  21   39 S
  22   40 S
  23   41 S
  24   26 A
  24   31 A
  25   30 A
  25   31 A
  26   24 A
  26   15 S
  26   30 A
  27   42 S
  29   18 A
  29   43 S
  31   24 A
  31   44 S
