35
   32   33   34
C    0.0000 0.0000 0.0000
C    -0.1615 -0.7490 -1.1599
C    -1.3939 -1.3223 -1.4508
C    -2.4648 -1.1462 -0.5826
C    -2.3035 -0.3972 0.5773
C    -1.0710 0.1760 0.8686
C    -3.7827 -1.8832 -0.9475
C    -4.9969 -1.2443 -0.3302
C    -5.4860 -1.6425 0.9155
C    -5.6585 -0.2334 -0.9991
C    -7.3115 -0.0956 0.7504
C    -6.6516 -1.1055 1.4438
C    -6.7705 0.3312 -0.4521
C    -3.5583 -6.1150 -0.0456
C    -2.9185 -5.2103 0.7860
C    -2.9637 -3.8486 0.4767
C    -3.6671 -3.3813 -0.5853
C    -4.3036 -4.2855 -1.4165
C    -4.2466 -5.6416 -1.1346
H    0.5550 -0.8677 -1.7408
H    -1.5016 -1.8239 -2.2268
H    -3.0207 -0.2793 1.1589
H    -0.9623 0.6769 1.6449
H    -3.8865 -1.8263 -1.9206
H    -5.0204 -2.2824 1.4019
H    -5.3436 0.0615 -1.8240
H    -6.9883 -1.4169 2.2541
H    -7.1825 1.0325 -0.9019
H    -2.4630 -5.5065 1.5417
H    -2.4981 -3.2459 1.0124
H    -4.7692 -3.9839 -2.1636
H    -4.6837 -6.2420 -1.6942
X    0.6644 0.2817 0.1531
X    -7.9672 0.1755 0.9997
X    -3.5097 -6.8400 0.0726
   0    1 A
   0    5 A
   0   32 S
   1    2 A
   1   19 S
   2    3 A
   2   20 S
   3    4 A
   3    6 S
   4    5 A
   4   21 S
   5   22 S
   6    7 S
   6   16 S
   6   23 S
   7    8 A
   7    9 A
   8   11 A
   8   24 S
   9   12 A
   9   25 S
  10   11 A
  10   12 A
  10   33 S
  11   26 S
  12   27 S
  13   14 A
  13   18 A
  13   34 S
  14   15 A
  14   28 S
  15   16 A
  15   29 S
  16   17 A
  17   18 A
  17   30 S
  18   31 S
