26
   20   21   22   23   24   25
Tb   0.0000 0.0000 0.0000
C    1.1386 -2.6577 1.6419
Tb   -2.6322 -3.3834 -1.3746
O    -3.2600 -4.0569 -3.4416
O    -2.1633 0.5001 -0.7691
C    -2.8785 0.0175 -1.7073
O    0.2750 -1.0565 -1.9802
O    -3.0900 -1.1793 -1.8945
O    -0.8126 -2.8271 -2.7402
C    -1.8173 -2.6550 1.2562
C    0.0937 -1.9911 -2.8056
C    -2.9080 -4.8408 -4.3663
O    -2.6772 -6.0559 -4.2129
O    1.3508 -1.5159 1.1186
O    1.7564 -3.6719 1.3216
O    -1.2794 -2.0654 0.3135
O    -2.8273 -3.3768 1.0668
C    0.1518 1.2941 2.4966
O    -0.8492 0.5644 2.2373
O    1.0415 1.5156 1.6283
X    0.5967 -3.0061 2.0129
X    -3.2405 0.3857 -2.2402
X    -1.5887 -2.6037 2.0205
X    0.6250 -1.6825 -3.1969
X    -2.7676 -4.3871 -4.9540
X    0.1653 1.4900 3.2077
   0    4 S
   0    6 S
   0   13 S
   0   15 S
   0   18 S
   0   19 S
   1   13 S
   1   14 D
   1   20 S
   2    3 S
   2    7 S
   2    8 S
   2   15 S
   2   16 S
   3   11 S
   4    5 A
   5    7 A
   5   21 S
   6   10 A
   8   10 A
   9   15 S
   9   16 D
   9   22 S
  10   23 S
  11   12 D
  11   24 S
  17   18 A
  17   19 A
  17   25 S
