28
   22   23   24   25   26   27
Co   0.0000 0.0000 0.0000
Co   2.4336 -1.2854 0.9604
C    -0.1186 -2.8540 -0.1288
H    0.4779 3.1897 -1.1828
C    3.5825 -3.8573 1.9797
O    -0.4801 -0.0388 1.9158
O    1.3159 -1.1792 2.6051
O    1.3997 1.5769 0.5581
O    3.1993 0.5282 1.3375
O    -1.2956 1.3831 -0.7784
O    -0.1121 3.2442 -0.6151
H    1.9557 -4.4751 2.1432
O    2.9137 -1.2466 -0.9553
O    1.1178 -0.1062 -1.6447
O    1.0339 -2.8622 0.4024
O    -0.7657 -1.8136 -0.3770
O    3.7292 -2.6684 1.7389
O    2.5457 -4.5295 1.5755
C    0.2003 -0.6363 2.7907
C    2.5522 1.5686 1.0892
C    -1.1488 2.5719 -1.0192
C    2.2333 -0.6491 -1.8303
X    -0.4277 -3.5659 -0.0995
X    4.0712 -4.1326 2.4540
X    -0.0907 -0.4841 3.4341
X    2.8613 2.2805 1.0599
X    -1.6376 2.8473 -1.4935
X    2.5244 -0.8013 -2.4736
   0    1 S
   0    5 S
   0    7 S
   0    9 S
   0   13 S
   0   15 S
   1    6 S
   1    8 S
   1   12 S
   1   14 S
   1   16 S
   2   14 A
   2   15 A
   2   22 S
   3   10 S
   4   16 A
   4   17 A
   4   23 S
   5   18 A
   6   18 A
   7   19 A
   8   19 A
   9   20 A
  10   20 A
  11   17 S
  12   21 A
  13   21 A
  18   24 S
  19   25 S
  20   26 S
  21   27 S
