27
   21   22   23   24   25   26
C    0.0000 0.0000 0.0000
Co   -1.6071 1.5239 -1.8518
Co   0.0000 4.3074 -1.8518
C    2.1233 3.6776 0.0000
Co   1.6071 1.5239 -1.8518
C    -2.1233 3.6776 0.0000
O    -1.0386 0.3496 -3.2598
O    -1.3012 4.4022 -3.2598
O    2.3398 2.6034 -3.2598
O    1.0386 0.3496 -0.4437
O    1.3012 4.4022 -0.4437
O    -2.3398 2.6034 -0.4437
O    -1.0386 0.3496 -0.4437
O    -1.3012 4.4022 -0.4437
O    2.3398 2.6034 -0.4437
O    1.0386 0.3496 -3.2598
O    1.3012 4.4022 -3.2598
O    -2.3398 2.6034 -3.2598
C    0.0000 0.0000 -3.7035
C    -2.1233 3.6776 -3.7035
C    2.1233 3.6776 -3.7035
X    -0.2497 -0.3077 0.5734
X    2.6227 3.6441 0.5734
X    -2.3729 4.0187 0.5734
X    -0.2497 -0.3077 -4.2769
X    -2.3729 4.0187 -4.2769
X    2.6227 3.6441 -4.2769
   0    9 A
   0   12 A
   0   21 S
   1    6 S
   1   11 S
   1   12 S
   1   17 S
   2    7 S
   2   10 S
   2   13 S
   2   16 S
   3   10 A
   3   14 A
   3   22 S
   4    8 S
   4    9 S
   4   14 S
   4   15 S
   5   11 A
   5   13 A
   5   23 S
   6   18 A
   7   19 A
   8   20 A
  15   18 A
  16   20 A
  17   19 A
  18   24 S
  19   25 S
  20   26 S
