40
   32   33   34   35   36   37   38   39
C    0.0000 0.0000 0.0000
Fe   0.7628 -4.7230 3.3565
Fe   -2.0542 -2.2783 -0.1010
Fe   -2.7629 -4.3138 2.7778
Fe   1.4716 -2.6875 0.4777
O    2.2236 -5.7575 2.3027
O    2.3310 -4.3925 0.1631
C    -1.2913 -3.8684 5.4708
O    -3.5149 -3.6166 -0.7250
O    -3.6223 -5.1789 1.2751
O    -2.4997 -6.3436 3.1316
O    0.0353 -6.5043 3.1495
O    1.2084 -3.0305 -1.5539
O    -1.3267 -3.0671 -1.7114
C    2.7045 -5.4399 1.0473
O    -3.5149 -1.2438 0.9528
O    -3.6223 -2.6088 3.0924
C    -3.9958 -4.6943 -0.0071
O    2.2236 -3.3847 3.9805
O    2.3310 -1.8224 1.9804
O    1.2084 -0.6577 0.1239
O    -1.3267 -0.4970 0.1060
C    -3.9958 -1.5614 2.2082
O    -2.4997 -3.9708 4.8094
O    0.0353 -3.9342 4.9669
C    -1.2913 -7.0013 3.2555
C    2.7045 -2.3070 3.2626
O    1.2217 -3.6672 1.8632
O    -2.5131 -3.3341 1.3923
O    -0.9341 -4.5788 3.1525
O    -0.3573 -2.4225 0.1030
C    0.0000 -3.1329 -2.2153
X    -0.3167 0.4794 0.1825
X    -1.8683 -4.0209 5.8290
X    3.4410 -5.5712 0.9902
X    -3.8385 -4.8901 -0.4910
X    -4.7323 -1.4301 2.2653
X    -0.9746 -7.4808 3.0730
X    2.5471 -2.1112 3.7465
X    0.5770 -2.9804 -2.5735
   0   20 A
   0   21 A
   0   32 S
   1    5 S
   1   11 S
   1   18 S
   1   24 S
   1   27 S
   1   29 S
   2    8 S
   2   13 S
   2   15 S
   2   21 S
   2   28 S
   2   30 S
   3    9 S
   3   10 S
   3   16 S
   3   23 S
   3   28 S
   3   29 S
   4    6 S
   4   12 S
   4   19 S
   4   20 S
   4   27 S
   4   30 S
   5   14 A
   6   14 A
   7   23 A
   7   24 A
   7   33 S
   8   17 A
   9   17 A
  10   25 A
  11   25 A
  12   31 A
  13   31 A
  14   34 S
  15   22 A
  16   22 A
  17   35 S
  18   26 A
  19   26 A
  22   36 S
  25   37 S
  26   38 S
  31   39 S
