36
   28   29   30   31   32   33   34   35
Fe   0.0000 0.0000 0.0000
Fe   2.6702 -1.8882 -3.2704
Fe   2.6703 0.9441 -1.6352
Fe   -0.0000 -2.8323 -1.6352
C    2.4088 1.3012 1.4144
C    2.4087 -4.7078 -2.0549
C    3.0941 0.8165 -4.6848
C    -2.5712 -1.1864 -1.2155
O    -0.5077 -1.2821 1.4108
O    4.5957 -1.6087 -2.9448
O    -0.3783 1.9086 -0.3257
O    1.6307 -2.7942 -4.6812
O    3.0486 1.6163 0.1805
O    1.0395 -4.5070 -1.7145
O    3.1780 1.5248 -3.4509
O    -1.9255 -2.4105 -1.5560
O    3.1779 -0.6061 -4.6812
O    -1.9255 -0.2795 -0.3257
O    3.0485 -3.7968 -2.9448
O    1.0395 0.9060 1.4108
C    -0.4239 -2.7047 1.4144
O    1.6308 2.6188 -1.5560
O    -0.5077 -3.4130 0.1805
O    -0.3783 -3.5045 -3.4509
O    4.5958 0.5223 -1.7145
C    5.2414 -0.7018 -2.0549
C    0.2615 2.8196 -1.2155
C    0.2615 -3.1894 -4.6848
X    3.1080 1.5154 1.5288
X    2.6338 -5.2299 -1.7226
X    2.8690 0.8916 -5.1809
X    -3.2704 -0.9532 -1.1662
X    -0.1988 -2.7798 1.9105
X    5.9407 -0.9350 -2.1043
X    0.0364 3.3417 -1.5479
X    -0.4377 -3.4036 -4.7992
   0    8 S
   0   10 S
   0   17 S
   0   19 S
   1    9 S
   1   11 S
   1   16 S
   1   18 S
   2   12 S
   2   14 S
   2   21 S
   2   24 S
   3   13 S
   3   15 S
   3   22 S
   3   23 S
   4   12 A
   4   19 A
   4   28 S
   5   13 A
   5   18 A
   5   29 S
   6   14 A
   6   16 A
   6   30 S
   7   15 A
   7   17 A
   7   31 S
   8   20 A
   9   25 A
  10   26 A
  11   27 A
  20   22 A
  20   32 S
  21   26 A
  23   27 A
  24   25 A
  25   33 S
  26   34 S
  27   35 S
