37
   29   30   31   32   33   34   35   36
Ca   0.0000 0.0000 0.0000
Ca   0.4149 0.0349 -7.4312
Ca   0.2075 0.0174 -3.7156
H    -2.7413 -1.6075 0.6050
C    2.4796 1.4455 -9.6960
C    -1.2631 1.9593 -6.1639
C    2.6097 1.6267 -5.3929
C    -0.1246 -2.3402 -5.9697
H    3.1562 1.6423 -8.0362
O    -0.9610 -1.0734 1.8786
O    -3.0575 -1.6813 1.4464
O    1.0897 -2.2667 -0.2231
O    1.3491 -0.8736 -1.8990
O    -1.4761 -1.3299 -3.0251
O    -1.9844 -1.1436 -0.8691
O    1.2804 2.0656 -0.4974
O    -0.2573 1.5421 -2.0035
O    1.3759 1.1082 -9.3099
O    3.4725 1.7162 -8.8776
O    -0.6748 2.3015 -7.2081
O    -0.9342 0.9085 -5.5322
O    1.8910 1.3648 -4.4061
O    2.3993 1.1785 -6.5621
O    -0.8655 -2.0307 -6.9338
O    0.6722 -1.5072 -5.4277
C    -2.0647 -1.4106 2.2648
C    1.6780 -1.9244 -1.2673
C    -2.1948 -1.5919 -2.0383
C    0.5395 2.3751 -1.4615
X    2.6587 1.4226 -10.4217
X    -1.6542 2.5356 -5.9003
X    3.4034 1.7125 -5.2674
X    -0.4577 -2.8947 -5.7120
X    -2.2438 -1.3878 2.9905
X    2.0691 -2.5008 -1.5309
X    -2.9885 -1.6776 -2.1638
X    0.8726 2.9296 -1.7192
   0    9 S
   0   11 S
   0   12 S
   0   14 S
   0   15 S
   0   16 S
   1   17 S
   1   19 S
   1   20 S
   1   22 S
   1   23 S
   1   24 S
   2   12 S
   2   13 S
   2   16 S
   2   20 S
   2   21 S
   2   24 S
   3   10 S
   4   17 A
   4   18 A
   4   29 S
   5   19 D
   5   20 S
   5   30 S
   6   21 A
   6   22 A
   6   31 S
   7   23 D
   7   24 S
   7   32 S
   8   18 S
   9   25 A
  10   25 A
  11   26 D
  12   26 S
  13   27 A
  14   27 A
  15   28 D
  16   28 S
  25   33 S
  26   34 S
  27   35 S
  28   36 S
