45
   41   42   43   44
Cu   0.0000 0.0000 0.0000
C    1.3716 -1.9502 3.5678
C    1.0613 -3.2759 3.3471
C    0.4924 -3.6521 2.1469
C    0.2170 -2.6892 1.2145
C    1.0968 -1.0488 2.5566
C    -1.5963 1.8333 -1.7000
C    -1.8924 2.5051 -2.8741
C    -0.9059 2.7290 -3.8139
C    0.3806 2.3260 -3.5359
C    0.6159 1.6698 -2.3292
H    1.2345 -3.9119 4.0039
H    0.2998 -4.5457 1.9754
H    -0.1935 -2.9411 0.4194
H    1.3270 -0.1575 2.6851
H    -2.2693 1.6888 -1.0756
H    -2.7580 2.8063 -3.0297
H    -1.1069 3.1467 -4.6199
H    1.4873 1.4168 -2.1230
C    1.0031 -2.1629 -3.5680
C    2.3064 -2.5571 -3.3473
C    2.9166 -2.2525 -2.1471
C    2.2204 -1.5325 -1.2147
C    0.3599 -1.4743 -2.5568
C    -0.7895 2.2991 1.7000
C    -1.2233 2.8914 2.8741
C    -1.9105 2.1490 3.8139
C    -2.2046 0.8334 3.5359
C    -1.7540 0.3015 2.3292
H    2.7705 -3.0251 -4.0041
H    3.7868 -2.5324 -1.9756
H    2.6438 -1.3030 -0.4196
H    -0.5271 -1.2280 -2.6853
H    -0.3279 2.8097 1.0756
H    -1.0513 3.7916 3.0297
H    -2.1717 2.5320 4.6199
H    -1.9706 -0.5797 2.1230
N    0.5163 -1.3959 1.4035
N    -0.3616 1.3876 -1.4477
N    0.9507 -1.1451 -1.4037
N    -1.0210 1.0069 1.4477
X    1.8203 -1.9131 4.2055
X    0.9857 2.1102 -3.9564
X    0.5545 -2.0657 -4.2057
X    -2.8098 0.6987 3.9564
   0   37 S
   0   38 S
   0   39 S
   0   40 S
   1    2 A
   1    5 A
   1   41 S
   2    3 A
   2   11 S
   3    4 A
   3   12 S
   4   13 S
   4   37 A
   5   14 S
   5   37 A
   6    7 A
   6   15 S
   6   38 A
   7    8 A
   7   16 S
   8    9 A
   8   17 S
   9   10 A
   9   42 S
  10   18 S
  10   38 A
  19   20 A
  19   23 A
  19   43 S
  20   21 A
  20   29 S
  21   22 A
  21   30 S
  22   31 S
  22   39 A
  23   32 S
  23   39 A
  24   25 A
  24   33 S
  24   40 A
  25   26 A
  25   34 S
  26   27 A
  26   35 S
  27   28 A
  27   44 S
  28   36 S
  28   40 A
