26
   20   21   22   23   24   25
Cd   0.0000 0.0000 0.0000
Cd   -2.2681 1.5085 1.9010
C    -0.8648 -1.2751 2.7560
C    2.2951 -0.8173 -1.4893
C    -2.8635 -0.6539 -0.6583
C    -1.4032 2.7835 -0.8549
C    -4.5631 2.3258 3.3903
C    0.5955 2.1624 2.5594
O    -0.0695 -1.3350 1.7875
O    -1.8074 -0.4576 2.9117
O    2.1757 -0.1014 -0.4634
O    1.3374 -1.2227 -2.1093
O    -1.7010 -0.9666 -1.0325
O    -3.1432 0.0433 0.3318
O    -2.1985 2.8434 0.1135
O    -0.4606 1.9661 -1.0107
O    -4.4437 1.6099 2.3645
O    -3.6055 2.7312 4.0103
O    -0.5670 2.4751 2.9335
O    0.8751 1.4652 1.5692
X    -0.9017 -1.7587 3.3114
X    2.9458 -1.2271 -1.7010
X    -3.5112 -0.6774 -1.0699
X    -1.3664 3.2671 -1.4104
X    -5.2138 2.7355 3.6020
X    1.2431 2.1859 2.9710
   0    1 S
   0    8 S
   0   10 S
   0   12 S
   0   15 S
   0   19 S
   1    9 S
   1   13 S
   1   14 S
   1   16 S
   1   18 S
   2    8 A
   2    9 A
   2   20 S
   3   10 S
   3   11 D
   3   21 S
   4   12 A
   4   13 A
   4   22 S
   5   14 A
   5   15 A
   5   23 S
   6   16 S
   6   17 D
   6   24 S
   7   18 A
   7   19 A
   7   25 S
