77
   73   74   75   76
C    0.0000 0.0000 0.0000
C    2.2604 0.5043 0.4405
C    -2.0561 -1.5640 -1.0782
C    2.8862 1.3482 9.2654
C    3.2923 1.6903 5.0228
C    4.6077 1.0932 1.0760
C    2.7983 2.8983 1.1321
C    2.7375 1.0132 2.8204
C    3.1671 8.5821 -1.9372
C    3.8465 4.9054 -1.5756
C    -0.7969 -1.9218 -1.2360
C    3.0547 1.4706 7.7840
C    6.1887 -0.6868 0.8700
C    2.3830 0.9357 5.5136
C    0.2707 -1.1310 -0.6815
C    2.4954 5.4812 0.3024
C    -3.2157 -3.4940 -1.9964
C    2.8249 9.4929 -1.3499
C    3.3817 1.9349 10.1112
C    3.1263 7.1606 -1.3390
C    -3.1850 -2.3116 -1.5406
C    -2.2936 -0.3684 -0.4383
C    -1.2949 0.3982 0.1118
C    4.0279 2.4016 5.7766
C    8.3214 -1.8973 -0.2608
C    8.1375 -0.5987 -0.3046
C    7.5475 -2.5196 0.6443
C    3.2054 4.5669 -0.4339
H    1.9488 7.4661 0.2761
C    9.4298 -2.7368 -0.7034
C    10.0607 -2.5694 -1.7049
H    4.2858 6.4638 -2.7875
H    4.4799 2.7626 7.7270
H    6.9242 0.9164 0.0679
H    1.5861 0.2851 7.3654
H    5.8234 -2.4506 1.7312
O    0.9655 0.8098 0.6121
O    4.9384 -0.1867 1.3924
H    2.4085 -0.4347 0.6443
H    2.5158 0.6581 -0.4821
H    5.1593 1.7065 1.5888
H    4.7864 1.2494 0.1337
H    3.2310 3.4423 1.8079
H    1.8415 3.0568 1.1746
H    2.9143 0.0731 2.9847
O    3.2754 3.2095 -0.1074
H    3.4838 8.6930 -2.8028
H    1.7956 1.1770 2.9760
H    4.3037 4.2599 -2.0643
O    3.5101 1.8037 3.6704
H    1.8109 0.4574 4.9548
H    1.1545 -1.3989 -0.7977
H    -0.5951 -2.6940 -1.7115
H    2.0637 5.2327 1.0891
H    -2.4162 -3.9616 -2.0884
H    2.5567 9.4361 -0.4624
H    4.5014 2.0142 9.9134
H    -4.0049 -1.8732 -1.5033
H    -3.1722 -0.0676 -0.3725
H    -1.5044 1.1877 0.5588
H    4.6332 3.0069 5.4128
H    8.7913 -0.0707 -0.7034
H    7.7978 -3.3706 0.9226
H    9.6648 -3.4581 -0.1644
H    9.8589 -1.7887 -2.1695
C    2.4418 6.8239 -0.1819
C    3.8210 6.2255 -2.0183
H    2.2859 0.6953 9.5393
C    3.9078 2.2584 7.1923
C    3.1140 1.3802 1.3703
C    7.0545 0.0049 0.1994
C    2.2502 0.8213 7.0016
C    6.4006 -1.9662 1.1878
X    -3.5988 -3.9520 -2.4787
X    2.5886 10.2281 -1.5732
X    3.2821 1.5517 10.9637
X    10.9840 -2.4351 -1.6789
   0   14 A
   0   22 A
   0   36 S
   1   36 S
   1   38 S
   1   39 S
   1   69 S
   2   10 A
   2   20 S
   2   21 A
   3   11 S
   3   18 D
   3   67 S
   4   13 A
   4   23 A
   4   49 S
   5   37 S
   5   40 S
   5   41 S
   5   69 S
   6   42 S
   6   43 S
   6   45 S
   6   69 S
   7   44 S
   7   47 S
   7   49 S
   7   69 S
   8   17 D
   8   19 S
   8   46 S
   9   27 A
   9   48 S
   9   66 A
  10   14 A
  10   52 S
  11   68 A
  11   71 A
  12   37 S
  12   70 A
  12   72 A
  13   50 S
  13   71 A
  14   51 S
  15   27 A
  15   53 S
  15   65 A
  16   20 D
  16   54 S
  16   73 S
  17   55 S
  17   74 S
  18   56 S
  18   75 S
  19   65 A
  19   66 A
  20   57 S
  21   22 A
  21   58 S
  22   59 S
  23   60 S
  23   68 A
  24   25 A
  24   26 A
  24   29 S
  25   61 S
  25   70 A
  26   62 S
  26   72 A
  27   45 S
  28   65 S
  29   30 D
  29   63 S
  30   64 S
  30   76 S
  31   66 S
  32   68 S
  33   70 S
  34   71 S
  35   72 S
