89
   81   82   83   84   85   86   87   88
Dy   0.0000 0.0000 0.0000
H    3.4123 1.2799 1.5234
H    4.2794 1.4485 3.6405
H    0.7108 2.7345 4.9528
H    -0.2540 4.7692 3.2850
H    -3.9717 4.0584 1.9925
H    -3.3561 1.8955 1.4752
H    -3.4123 -1.2799 1.5234
H    -4.2794 -1.4485 3.6405
H    -0.7108 -2.7345 4.9528
H    0.2540 -4.7692 3.2850
H    3.9717 -4.0584 1.9925
H    3.3561 -1.8955 1.4752
H    1.2799 -3.4123 -1.5234
H    1.4485 -4.2794 -3.6405
H    2.7345 -0.7108 -4.9528
H    4.7692 0.2540 -3.2850
H    4.0584 3.9717 -1.9925
H    1.8955 3.3561 -1.4752
H    -1.2799 3.4123 -1.5234
H    -1.4485 4.2794 -3.6405
H    -2.7345 0.7108 -4.9528
H    -4.7692 -0.2540 -3.2850
H    -4.0584 -3.9717 -1.9925
H    -1.8955 -3.3561 -1.4752
C    2.8774 1.5926 2.2172
C    3.3903 1.6695 3.4825
C    2.5769 2.0799 4.5232
C    1.2653 2.4450 4.2652
C    0.7951 2.3718 2.9640
C    -0.5435 2.8798 2.6233
C    -0.8915 4.1903 2.9344
C    -2.1849 4.6336 2.7245
C    -3.1045 3.7689 2.1628
C    -2.7357 2.4744 1.8555
C    -2.8774 -1.5926 2.2172
C    -3.3903 -1.6695 3.4825
C    -2.5769 -2.0799 4.5232
C    -1.2653 -2.4450 4.2652
C    -0.7951 -2.3718 2.9640
C    0.5435 -2.8798 2.6233
C    0.8915 -4.1903 2.9344
C    2.1849 -4.6336 2.7245
C    3.1045 -3.7689 2.1628
C    2.7357 -2.4744 1.8555
C    1.5926 -2.8774 -2.2172
C    1.6695 -3.3903 -3.4825
C    2.0799 -2.5769 -4.5232
C    2.4450 -1.2653 -4.2652
C    2.3718 -0.7951 -2.9640
C    2.8798 0.5435 -2.6233
C    4.1903 0.8915 -2.9344
C    4.6336 2.1849 -2.7245
C    3.7689 3.1045 -2.1628
C    2.4744 2.7357 -1.8555
C    -1.5926 2.8774 -2.2172
C    -1.6695 3.3903 -3.4825
C    -2.0799 2.5769 -4.5232
C    -2.4450 1.2653 -4.2652
C    -2.3718 0.7951 -2.9640
C    -2.8798 -0.5435 -2.6233
C    -4.1903 -0.8915 -2.9344
C    -4.6336 -2.1849 -2.7245
C    -3.7689 -3.1045 -2.1628
C    -2.4744 -2.7357 -1.8555
N    1.6194 1.9590 1.9641
N    -1.4888 2.0457 2.0987
N    -1.6194 -1.9590 1.9641
N    1.4888 -2.0457 2.0987
N    1.9590 -1.6194 -1.9641
N    2.0457 1.4888 -2.0987
N    -1.9590 1.6194 -1.9641
N    -2.0457 -1.4888 -2.0987
O    1.1590 1.8894 0.7197
O    -1.1761 0.7877 1.8838
O    -1.1590 -1.8894 0.7197
O    1.1761 -0.7877 1.8838
O    1.8894 -1.1590 -0.7197
O    0.7877 1.1761 -1.8838
O    -1.8894 1.1590 -0.7197
O    -0.7877 -1.1761 -1.8838
X    2.9079 2.1569 5.3477
X    -2.3953 5.4637 2.9613
X    -2.9079 -2.1569 5.3477
X    2.3953 -5.4637 2.9613
X    2.1569 -2.9079 -5.3477
X    5.4637 2.3953 -2.9613
X    -2.1569 2.9079 -5.3477
X    -5.4637 -2.3953 -2.9613
   0   73 S
   0   74 S
   0   75 S
   0   76 S
   0   77 S
   0   78 S
   0   79 S
   0   80 S
   1   25 S
   2   26 S
   3   28 S
   4   31 S
   5   33 S
   6   34 S
   7   35 S
   8   36 S
   9   38 S
  10   41 S
  11   43 S
  12   44 S
  13   45 S
  14   46 S
  15   48 S
  16   51 S
  17   53 S
  18   54 S
  19   55 S
  20   56 S
  21   58 S
  22   61 S
  23   63 S
  24   64 S
  25   26 A
  25   65 A
  26   27 A
  27   28 A
  27   81 S
  28   29 A
  29   30 S
  29   65 A
  30   31 A
  30   66 A
  31   32 A
  32   33 A
  32   82 S
  33   34 A
  34   66 A
  35   36 A
  35   67 A
  36   37 A
  37   38 A
  37   83 S
  38   39 A
  39   40 S
  39   67 A
  40   41 A
  40   68 A
  41   42 A
  42   43 A
  42   84 S
  43   44 A
  44   68 A
  45   46 A
  45   69 A
  46   47 A
  47   48 A
  47   85 S
  48   49 A
  49   50 S
  49   69 A
  50   51 A
  50   70 A
  51   52 A
  52   53 A
  52   86 S
  53   54 A
  54   70 A
  55   56 A
  55   71 A
  56   57 A
  57   58 A
  57   87 S
  58   59 A
  59   60 S
  59   71 A
  60   61 A
  60   72 A
  61   62 A
  62   63 A
  62   88 S
  63   64 A
  64   72 A
  65   73 S
  66   74 S
  67   75 S
  68   76 S
  69   77 S
  70   78 S
  71   79 S
  72   80 S
