37
   29   30   31   32   33   34   35   36
C    0.0000 0.0000 0.0000
O    -1.5958 -3.7250 -0.2403
C    -3.4807 0.5191 -1.5029
O    -3.8117 -4.0366 -0.1547
O    -2.2459 -4.2907 2.7292
O    -0.2973 -3.2490 2.5362
C    -2.6529 -4.3247 -0.5105
C    -1.1144 -4.1830 3.0037
O    -2.8190 -0.4508 -1.5481
O    -3.7971 0.5714 4.0376
O    -3.7780 1.2473 -0.4599
O    -2.8417 1.7742 2.4082
Zn   -4.4133 -2.4056 0.7651
O    -0.8892 -0.4595 3.8334
O    -2.1874 -1.9611 4.8230
Zn   -2.6591 0.4394 0.9754
Zn   -1.3212 -2.3402 1.1741
C    -3.3827 1.6254 3.5208
Zn   -3.3866 -1.2979 3.4623
C    -1.0930 -1.2231 4.6951
O    -2.9843 -1.3733 1.5461
C    -6.2005 -0.6405 0.0482
O    -6.0007 -0.2798 1.1485
O    -5.5930 -1.5881 -0.6150
O    -5.7230 -3.1939 2.0445
O    -5.0928 -2.1406 3.8934
C    -5.8889 -2.8030 3.1899
O    -0.8062 0.8437 0.3611
O    -0.0032 -1.2230 0.2675
X    0.3904 -0.1897 -0.5188
X    -4.0577 0.6567 -1.8780
X    -2.4949 -4.9449 -0.9550
X    -0.6434 -4.5816 3.4123
X    -2.9660 2.3859 3.8634
X    -0.2919 -1.2484 4.9010
X    -6.8710 -0.3624 -0.1794
X    -6.3383 -2.5939 3.6805
   0   27 A
   0   28 A
   0   29 S
   1    6 A
   1   16 S
   2    8 D
   2   10 S
   2   30 S
   3    6 A
   3   12 S
   4    7 D
   5    7 S
   5   16 S
   6   31 S
   7   32 S
   9   17 A
   9   18 S
  10   15 S
  11   15 S
  11   17 A
  12   20 S
  12   23 S
  12   24 S
  13   19 D
  14   18 S
  14   19 S
  15   20 S
  15   27 S
  16   20 S
  16   28 S
  17   33 S
  18   20 S
  18   25 S
  19   34 S
  21   22 D
  21   23 S
  21   35 S
  24   26 A
  25   26 A
  26   36 S
