62
   54   55   56   57   58   59   60   61
H    0.0000 0.0000 0.0000
H    1.3424 1.7866 -0.4029
Co   3.6606 0.9867 -4.6472
N    2.2765 -0.6179 -4.3335
N    4.9940 2.6442 -4.9604
C    5.4119 -0.4591 -5.7029
Co   1.8282 4.0765 -2.3564
N    3.2122 5.6811 -2.6701
N    0.4948 2.4191 -2.0432
O    2.1870 1.9469 -5.6652
O    1.8963 3.7186 -4.3386
O    5.4237 -0.2514 -4.4555
O    4.4677 -0.0380 -6.4250
O    3.3018 3.1164 -1.3384
O    3.5924 1.3446 -2.6650
H    3.1373 -1.3009 -2.7160
H    1.1358 -0.3062 -5.8928
H    6.1155 2.4010 -3.3838
H    1.6546 -2.9705 -2.2373
H    -0.4209 -1.9329 -5.4898
H    4.1464 3.2767 -6.6007
H    7.5430 4.1407 -3.7178
H    5.4888 5.0633 -7.0036
O    0.0651 5.3147 -2.5481
O    1.0211 5.1013 -0.5786
C    5.0870 7.6936 -3.2313
C    3.9780 7.4907 -4.0261
C    3.0827 6.4871 -3.7262
C    4.2566 5.9015 -1.8673
C    5.2006 6.8803 -2.1044
C    -0.5048 2.1254 -2.8711
C    -1.3643 1.0737 -2.6790
C    -1.2141 0.2403 -1.5946
C    -0.1594 0.5346 -0.7444
C    0.6485 1.6099 -0.9956
C    0.4017 -2.6303 -3.7723
C    1.5107 -2.4275 -2.9775
C    2.4060 -1.4238 -3.2774
C    1.2321 -0.8383 -5.1363
C    0.2882 -1.8170 -4.8992
C    5.9935 2.9379 -4.1325
C    6.8531 3.9896 -4.3246
C    6.7029 4.8230 -5.4090
C    5.6481 4.5286 -6.2592
C    4.8403 3.4534 -6.0081
C    3.8732 2.0427 -1.6621
C    0.0769 5.5224 -1.3008
C    1.6156 3.0206 -5.3415
H    3.8342 8.0337 -4.7663
H    2.3514 6.3642 -4.2877
H    4.3529 5.3695 -1.1109
H    5.9097 6.9961 -1.5138
H    -0.6267 2.6623 -3.6198
H    -2.0542 0.9225 -3.2859
X    5.9246 -0.9608 -6.0076
X    5.6736 8.0526 -3.3994
X    -1.7577 -0.1814 -1.4473
X    -0.1848 -2.9894 -3.6042
X    7.2465 5.2446 -5.5561
X    4.3709 1.6692 -1.2006
X    -0.4358 6.0240 -0.9962
X    1.1179 3.3941 -5.8030
   0   33 S
   1   34 S
   2    3 S
   2    4 S
   2    9 S
   2   11 S
   2   12 S
   2   14 S
   3   37 A
   3   38 A
   4   40 A
   4   44 A
   5   11 A
   5   12 A
   5   54 S
   6    7 S
   6    8 S
   6   10 S
   6   13 S
   6   23 S
   6   24 S
   7   27 A
   7   28 A
   8   30 A
   8   34 A
   9   47 A
  10   47 A
  13   45 A
  14   45 A
  15   37 S
  16   38 S
  17   40 S
  18   36 S
  19   39 S
  20   44 S
  21   41 S
  22   43 S
  23   46 A
  24   46 A
  25   26 A
  25   29 A
  25   55 S
  26   27 A
  26   48 S
  27   49 S
  28   29 A
  28   50 S
  29   51 S
  30   31 A
  30   52 S
  31   32 A
  31   53 S
  32   33 A
  32   56 S
  33   34 A
  35   36 A
  35   39 A
  35   57 S
  36   37 A
  38   39 A
  40   41 A
  41   42 A
  42   43 A
  42   58 S
  43   44 A
  45   59 S
  46   60 S
  47   61 S
