62
   54   55   56   57   58   59   60   61
C    0.0000 0.0000 0.0000
C    -2.9776 -4.2222 -2.6964
C    -2.2270 -3.9569 -1.5944
C    -2.4209 -2.7707 -0.9113
C    -4.0438 -2.1530 -2.3442
C    -3.9380 -3.3211 -3.0660
C    -4.2151 1.5891 -2.4713
C    -1.2375 -2.6161 -5.1940
C    -1.9880 -1.5033 -5.4099
C    -1.7942 -0.3897 -4.6140
C    -0.1712 -1.4371 -3.4575
C    -0.2771 -2.5786 -4.2208
C    -4.8482 -1.0659 1.9958
C    -2.9965 2.3440 2.1072
C    -2.9601 3.5529 2.7855
C    -3.5912 4.6211 2.2076
C    -4.2513 4.4426 1.0349
C    -4.2411 3.2012 0.4660
C    0.6331 2.9628 -4.2692
Cd   -3.5914 0.1094 -0.1155
Cd   -0.6236 1.5294 -2.3238
C    -1.2185 4.4790 -1.2130
C    -1.2550 5.5977 -0.3944
C    -0.6239 5.5152 0.8173
C    0.0363 4.3741 1.1414
C    0.0261 3.3413 0.2480
H    -1.5887 -4.5690 -1.3033
H    -1.8962 -2.6030 -0.1608
H    -4.6682 -1.5246 -2.6251
H    -4.5035 -3.4920 -3.7833
N    -3.3094 -1.8645 -1.2678
N    -0.9056 -0.3380 -3.6417
N    -3.6114 2.1422 0.9753
N    -0.6036 3.3654 -0.9268
O    0.7672 0.3791 -0.9026
O    -1.2383 0.1870 -0.0517
H    -2.3189 0.3627 -4.7729
H    0.4531 -1.4319 -2.7692
H    -2.6264 -1.4925 -6.0876
H    0.2884 -3.3021 -4.0786
O    -4.9822 0.9252 -1.7519
O    -2.9767 1.6197 -2.2797
H    -2.5491 1.6243 2.4880
H    -2.5229 3.6354 3.6023
O    -3.6062 -1.0163 1.9631
O    -5.5685 -0.5487 1.1231
H    -4.7061 3.0856 -0.3313
H    -4.6988 5.1498 0.6284
O    -0.6089 2.9536 -4.2105
O    1.3535 2.3833 -3.4366
H    -1.6659 4.5268 -2.0257
H    -1.6922 6.3751 -0.6582
H    0.4837 4.2976 1.9536
H    0.4910 2.5680 0.4737
X    0.2813 -0.4751 0.4858
X    -2.5340 -4.4192 -2.9801
X    -4.5299 2.0918 -2.9151
X    -1.0900 -2.9070 -5.6526
X    -5.1798 -1.8617 2.1408
X    -3.9201 4.9670 2.5133
X    0.9656 3.7581 -4.4152
X    -0.8941 5.6639 1.2643
   0   34 A
   0   35 A
   0   54 S
   1    2 A
   1    5 A
   1   55 S
   2    3 A
   2   26 S
   3   27 S
   3   30 A
   4    5 A
   4   28 S
   4   30 A
   5   29 S
   6   40 A
   6   41 A
   6   56 S
   7    8 A
   7   11 A
   7   57 S
   8    9 A
   8   38 S
   9   31 A
   9   36 S
  10   11 A
  10   31 A
  10   37 S
  11   39 S
  12   44 A
  12   45 A
  12   58 S
  13   14 A
  13   32 A
  13   42 S
  14   15 A
  14   43 S
  15   16 A
  15   59 S
  16   17 A
  16   47 S
  17   32 A
  17   46 S
  18   48 A
  18   49 A
  18   60 S
  19   30 S
  19   32 S
  19   35 S
  19   40 S
  19   44 S
  19   45 S
  20   31 S
  20   33 S
  20   34 S
  20   41 S
  20   48 S
  20   49 S
  21   22 A
  21   33 A
  21   50 S
  22   23 A
  22   51 S
  23   24 A
  23   61 S
  24   25 A
  24   52 S
  25   33 A
  25   53 S
