47
   43   44   45   46
C    0.0000 0.0000 0.0000
Cd   -0.4785 -3.2738 -3.2936
C    -1.7999 0.6036 -1.2371
C    -1.4582 -0.4210 -2.1148
C    -1.0742 0.8100 -0.1354
I    2.0721 -4.0989 -1.7776
I    -3.0291 -2.4488 -4.8095
H    -0.7158 -3.5588 -0.1878
H    -2.1534 -4.0295 1.5383
H    -4.6484 -5.6380 -1.1562
N    -1.7802 -4.2719 -1.6575
H    -3.1508 -5.1025 -2.7722
N    -0.4322 -5.2920 -4.6298
H    -1.9308 -5.0318 -5.7873
H    -1.5429 -6.6612 -7.2997
H    1.5774 -7.6911 -5.1687
H    1.0083 -6.0502 -3.6952
N    0.8232 -2.2758 -4.9297
N    -0.5248 -1.2557 -1.9574
H    -0.2412 -2.9889 -6.3993
H    1.1964 -2.5182 -8.1255
H    3.6914 -0.9097 -5.4310
H    2.1938 -1.4452 -3.8150
H    0.9738 -1.5159 -0.7999
H    0.5858 0.1135 0.7125
H    -2.5344 1.1434 -1.4185
H    -1.9653 -0.4975 -2.8920
C    -1.5232 -3.9766 -0.3834
C    -2.3838 -4.2533 0.6668
C    -3.5939 -4.8668 0.3909
C    -3.8588 -5.2012 -0.9304
C    -2.9470 -4.8823 -1.8913
C    -1.1766 -5.5611 -5.6642
C    -0.9570 -6.5477 -6.5872
C    0.1172 -7.3577 -6.4518
C    0.8429 -7.1513 -5.3501
C    0.5012 -6.1267 -4.4724
C    0.5662 -2.5711 -6.2037
C    1.4268 -2.2944 -7.2540
C    2.6369 -1.6809 -6.9781
C    2.9018 -1.3465 -5.6567
C    1.9900 -1.6654 -4.6959
C    0.2196 -0.9866 -0.9230
X    -1.1354 1.4107 0.2027
X    -3.9369 -4.9156 1.0469
X    0.1784 -7.9584 -6.7899
X    2.9799 -1.6321 -7.6340
   0    4 A
   0   24 S
   0   42 A
   1    5 S
   1    6 S
   1   10 S
   1   12 S
   1   17 S
   1   18 S
   2    3 A
   2    4 A
   2   25 S
   3   18 A
   3   26 S
   4   43 S
   7   27 S
   8   28 S
   9   30 S
  10   27 A
  10   31 A
  11   31 S
  12   32 A
  12   36 A
  13   32 S
  14   33 S
  15   35 S
  16   36 S
  17   37 A
  17   41 A
  18   42 A
  19   37 S
  20   38 S
  21   40 S
  22   41 S
  23   42 S
  27   28 A
  28   29 A
  29   30 A
  29   44 S
  30   31 A
  32   33 A
  33   34 A
  34   35 A
  34   45 S
  35   36 A
  37   38 A
  38   39 A
  39   40 A
  39   46 S
  40   41 A
