27
   21   22   23   24   25   26
C    0.0000 0.0000 0.0000
Zn   4.4978 -1.1092 -2.9305
C    0.0091 -4.0824 -0.2075
Zn   -1.8606 -1.9152 -1.0008
Zn   1.5080 -2.0288 -1.8463
O    3.4668 -1.9276 -1.1223
O    5.3607 -2.8192 -1.3116
C    4.3712 -2.5589 -0.6433
C    2.8360 0.8259 -2.6816
O    -0.2560 -1.6728 -2.8498
O    -2.3928 -1.6842 -2.9220
C    -1.2795 -1.4754 -3.4808
O    -1.1410 -3.5484 -0.3126
O    1.0502 -3.6817 -0.7666
C    2.9032 -3.0042 -4.4185
O    2.0288 -3.0909 -3.5351
O    3.9899 -2.3978 -4.2999
O    2.2730 -0.2444 -3.0288
O    4.0432 0.9185 -2.4559
O    0.9635 -0.7093 -0.3463
O    -1.2175 -0.2687 -0.1849
X    -0.0122 0.5916 0.4405
X    0.0768 -4.7465 0.1482
X    4.2161 -2.9333 -0.0302
X    2.3030 1.3481 -2.5768
X    -1.2024 -1.0658 -4.0862
X    2.9254 -3.2293 -5.1099
   0   19 A
   0   20 A
   0   21 S
   1    5 S
   1   16 S
   1   17 S
   1   18 S
   2   12 A
   2   13 A
   2   22 S
   3   10 S
   3   12 S
   3   20 S
   4    5 S
   4    9 S
   4   13 S
   4   15 S
   4   17 S
   4   19 S
   5    7 S
   6    7 D
   7   23 S
   8   17 S
   8   18 D
   8   24 S
   9   11 A
  10   11 A
  11   25 S
  14   15 A
  14   16 A
  14   26 S
