27
   21   22   23   24   25   26
Ca   0.0000 0.0000 0.0000
Zn   2.6343 -0.9192 2.0463
Zn   -2.6343 0.9192 -2.0463
C    -1.6799 2.9364 -0.6251
C    -2.5630 -1.7805 -1.0798
C    -0.2156 0.2590 -3.4137
O    1.6689 -1.6552 0.4193
O    2.1045 -3.3856 1.6933
O    1.8014 1.4003 0.1725
O    3.1355 0.9985 1.9012
O    -0.3304 -0.0060 2.3191
O    1.3724 -0.7672 3.5374
O    -1.6689 1.6552 -0.4193
O    -2.1045 3.3856 -1.6933
O    -1.8014 -1.4003 -0.1725
O    -3.1355 -0.9985 -1.9012
O    0.3304 0.0060 -2.3191
O    -1.3724 0.7672 -3.5374
C    1.6799 -2.9364 0.6251
C    2.5630 1.7805 1.0798
C    0.2156 -0.2590 3.4137
X    -1.4434 3.3901 -0.0814
X    -2.6770 -2.5185 -1.1645
X    0.1402 0.1038 -4.0551
X    1.4434 -3.3901 0.0814
X    2.6770 2.5187 1.1643
X    -0.1402 -0.1036 4.0548
   0    6 S
   0    8 S
   0   10 S
   0   12 S
   0   14 S
   0   16 S
   1    6 S
   1    9 S
   1   11 S
   2   12 S
   2   15 S
   2   17 S
   3   12 S
   3   13 D
   3   21 S
   4   14 A
   4   15 A
   4   22 S
   5   16 A
   5   17 A
   5   23 S
   6   18 S
   7   18 D
   8   19 A
   9   19 A
  10   20 A
  11   20 A
  18   24 S
  19   25 S
  20   26 S
