17
   13   14   15   16
C    0.0000 0.0000 0.0000
H    -0.2033 -0.8736 2.3990
H    -0.3169 -2.4261 2.2537
H    1.9510 -1.8598 0.0311
H    1.0995 -3.1671 0.0581
C    -1.4270 -2.1209 0.1642
H    0.8567 0.3720 0.2615
H    -0.0584 0.0532 -0.9671
H    -1.4690 -2.9443 0.6765
H    -2.0923 -1.5213 0.5354
C    0.1783 -1.6476 1.9553
C    -0.0370 -1.4883 0.4144
C    1.1170 -2.2547 -0.2698
X    -0.4212 0.5890 0.2353
X    -1.7112 -2.2719 -0.4317
X    0.8759 -1.9209 2.1020
X    1.0783 -2.3623 -0.9613
   0    6 S
   0    7 S
   0   11 S
   0   13 S
   1   10 S
   2   10 S
   3   12 S
   4   12 S
   5    8 S
   5    9 S
   5   11 S
   5   14 S
  10   11 S
  10   15 S
  11   12 S
  12   16 S
