26
   20   21   22   23   24   25
Pr   0.0000 0.0000 0.0000
Pr   0.5175 1.0684 3.8871
O    2.4590 1.7023 2.5557
O    2.2669 0.7060 0.5486
O    0.8125 1.6450 -1.7887
O    1.1933 -0.4621 -2.1360
O    0.6995 -0.8872 2.4469
O    1.2057 -2.0968 0.6796
C    -0.7005 2.9863 1.9720
C    2.7946 1.5563 1.3429
C    1.3004 0.7117 -2.4691
C    -0.7829 0.3567 6.3562
C    -2.2771 -0.4878 2.5443
C    1.2180 -1.9179 1.9151
O    -1.9415 -0.6338 1.3315
O    -1.7494 0.3624 3.3385
O    -0.2950 -0.5766 5.6758
O    -0.6758 1.5305 6.0232
O    -0.1820 1.9556 1.4402
O    -0.6882 3.1652 3.2076
X    -1.0959 3.2912 1.4471
X    3.3004 1.8332 0.8528
X    1.5437 0.5436 -3.0674
X    -1.0262 0.5248 6.9545
X    -2.7829 -0.7648 3.0344
X    1.6134 -2.2228 2.4401
   0    3 S
   0    4 S
   0    5 S
   0    6 S
   0    7 S
   0   14 S
   0   18 S
   1    2 S
   1    6 S
   1   15 S
   1   16 S
   1   17 S
   1   18 S
   1   19 S
   2    9 A
   3    9 A
   4   10 A
   5   10 A
   6   13 S
   7   13 D
   8   18 S
   8   19 D
   8   20 S
   9   21 S
  10   22 S
  11   16 A
  11   17 A
  11   23 S
  12   14 A
  12   15 A
  12   24 S
  13   25 S
