61
   57   58   59   60
O    0.0000 0.0000 0.0000
O    -1.1944 1.1610 1.5466
La   6.9932 2.4287 -0.7175
La   3.2339 4.9637 -7.0094
La   6.6524 -1.4388 -7.5988
La   0.6948 -0.8361 -2.3177
Mo   4.2602 4.5550 -2.8536
Mo   3.0330 1.9831 -0.9057
Mo   1.2657 2.9430 -3.7359
Mo   6.2785 4.3634 -4.5154
Mo   7.9081 1.2340 -4.8094
Mo   6.2313 2.5639 -7.5066
Mo   3.5770 1.0440 -8.2494
Mo   1.0596 1.5808 -5.9307
Mo   2.7365 -1.5367 -6.1255
Mo   4.1101 -2.3496 -4.1191
Mo   7.1726 -0.7716 -3.3632
Mo   4.5718 -0.7583 -1.1054
P    4.3510 1.2106 -4.4376
C    4.7662 -2.8465 -9.4260
C    4.9547 6.5210 -9.8300
C    8.3990 0.0714 0.4015
C    -0.9174 0.1209 0.8675
O    4.3815 4.6898 -4.8035
O    5.9836 3.7069 -2.7239
O    2.2613 4.5836 -3.1255
O    3.8542 3.6051 -1.1030
O    3.6012 2.1685 -3.4923
O    1.4742 2.3784 -1.7821
O    4.8456 1.1890 -0.9146
O    2.7932 0.0862 -1.3979
O    1.9021 3.3025 -5.5520
O    0.9665 1.0207 -4.0673
O    7.9797 3.2826 -4.5432
O    6.2821 4.1415 -6.5112
O    5.5935 1.9451 -5.0612
O    7.3923 1.1419 -2.9346
O    7.1223 -0.5001 -5.3339
O    7.6588 1.7447 -6.7913
O    4.2755 2.8467 -7.6736
O    5.4742 0.7436 -7.8347
O    3.2527 -0.7223 -7.9041
O    1.9215 1.7114 -7.7480
O    3.3901 0.7844 -5.6139
O    1.0072 -0.4297 -6.3352
O    4.6268 -1.8340 -5.8965
O    2.3674 -1.5026 -4.2012
O    3.9557 -2.1434 -2.1241
O    6.1372 -2.5495 -3.7525
O    4.8243 -0.0535 -3.6807
O    6.3061 -0.9172 -1.5714
O    7.3317 0.3527 0.8898
O    8.9447 0.7407 -0.5428
O    4.4921 5.5685 -9.0889
O    6.1073 6.7022 -10.1324
O    5.0820 -3.3674 -8.2883
O    5.2674 -1.8045 -9.7953
X    4.2482 -3.1192 -10.0117
X    4.4337 7.0314 -10.0649
X    8.7662 -0.5542 0.5403
X    -1.3498 -0.5316 0.7344
   0   22 S
   0    5 S
   1   22 D
   2   24 S
   2   29 S
   2   36 S
   2   51 S
   2   52 S
   3   23 S
   3   31 S
   3   39 S
   3   53 S
   4   37 S
   4   40 S
   4   45 S
   4   55 S
   4   56 S
   5   30 S
   5   32 S
   5   46 S
   6    9 S
   6   23 S
   6   24 S
   6   25 S
   6   26 S
   7   26 S
   7   28 S
   7   29 S
   7   30 S
   8   13 S
   8   25 S
   8   28 S
   8   31 S
   8   32 S
   9   23 S
   9   24 S
   9   33 S
   9   34 S
  10   16 S
  10   33 S
  10   35 S
  10   36 S
  10   37 S
  10   38 S
  11   34 S
  11   38 S
  11   39 S
  11   40 S
  12   39 S
  12   40 S
  12   41 S
  12   42 S
  13   31 S
  13   32 S
  13   42 S
  13   44 S
  14   15 S
  14   41 S
  14   44 S
  14   45 S
  14   46 S
  15   45 S
  15   46 S
  15   47 S
  15   48 S
  15   49 S
  16   36 S
  16   37 S
  16   48 S
  16   50 S
  17   29 S
  17   30 S
  17   47 S
  17   50 S
  18   27 A
  18   35 S
  18   43 A
  18   49 S
  19   55 A
  19   56 A
  19   57 S
  20   53 S
  20   54 D
  20   58 S
  21   51 A
  21   52 A
  21   59 S
  22   60 S
  54   20 D
  58   20 S
