24
   20   21   22   23
H    0.0000 0.0000 0.0000
H    -0.9944 -2.0770 -0.0164
C    -1.0629 -1.5232 -3.2161
C    -0.8667 -1.6218 -0.8191
C    -1.2694 -2.2120 -2.0145
C    -1.3070 -2.1953 -4.5104
C    -1.3070 -1.3881 -5.7587
C    -1.7417 -1.9575 -6.9587
C    -0.6195 0.6151 -6.9386
C    -0.7715 -0.0883 -5.7413
C    -0.4376 0.5725 -4.4503
C    -0.5100 -0.2274 -3.1994
C    -1.0475 0.0395 -8.1258
C    -1.6099 -1.2281 -8.1366
H    -1.9026 -1.5948 -8.9407
H    -0.9561 0.5081 -8.9242
O    -1.4284 -3.4110 -4.5774
O    -0.1790 1.7580 -4.4076
C    -0.1069 0.3418 -1.9892
C    -0.2804 -0.3698 -0.8053
X    -1.7243 -2.7861 -1.9771
X    -2.1776 -2.5420 -7.0083
X    -0.1627 1.1842 -6.9935
X    0.3356 0.9245 -1.9409
   0   19 S
   1    3 S
   2    4 A
   2    5 S
   2   11 A
   3    4 A
   3   19 A
   4   20 S
   5    6 S
   5   16 D
   6    7 A
   6    9 A
   7   13 A
   7   21 S
   8    9 A
   8   12 A
   8   22 S
   9   10 S
  10   11 S
  10   17 D
  11   18 A
  12   13 A
  12   15 S
  13   14 S
  18   19 A
  18   23 S
