76
   66   67   68   69   70   71   72   73   74   75
Co   0.0000 0.0000 0.0000
Co   -0.2882 1.4966 2.6870
Co   2.3280 1.6940 5.0186
Co   2.6163 0.1973 2.3316
H    1.2842 1.9371 0.9072
H    -1.3102 0.3178 5.3740
H    -2.7487 0.8097 7.0876
H    -3.7609 4.2053 5.1857
H    -2.2795 3.6291 3.4931
H    3.0206 -3.0982 -2.5497
H    1.5597 -2.4307 -0.7804
H    0.8201 0.9128 -2.7021
H    2.2021 0.3819 -4.4170
H    1.0438 -0.2432 4.1114
H    3.6382 1.3762 -0.3554
H    5.0768 0.8843 -2.0690
H    6.0889 -2.5113 -0.1670
H    4.6075 -1.9351 1.5255
H    -0.6926 4.7922 7.5684
H    0.7683 4.1246 5.7990
H    1.5079 0.7812 7.7208
H    0.1259 1.3120 9.4356
C    -1.4549 -1.3694 1.8179
C    4.0733 -0.5597 4.9849
C    0.9050 4.1898 2.1847
C    -1.8140 1.1218 5.3282
C    -2.6722 1.4105 6.3553
C    -3.4248 2.5621 6.3380
C    -3.2647 3.3968 5.2451
C    -2.3762 3.0450 4.2353
C    2.7625 -1.3717 -3.6772
C    2.5745 -2.2597 -2.5807
C    1.6976 -1.8586 -1.5263
C    1.2825 0.0838 -2.6588
C    2.1016 -0.2211 -3.6896
C    3.7829 3.0634 3.2007
C    -1.7453 2.2536 0.0337
C    1.4230 -2.4958 2.8340
C    4.1421 0.5722 -0.3095
C    5.0002 0.2835 -1.3367
C    5.7528 -0.8681 -1.3193
C    5.5928 -1.7028 -0.2265
C    4.7042 -1.3511 0.7833
C    -0.4345 3.0656 8.6959
C    -0.2465 3.9537 7.5993
C    0.6304 3.5525 6.5449
C    1.0455 1.6102 7.6774
C    0.2264 1.9150 8.7083
N    -1.6482 1.9144 4.2626
N    1.0692 -0.6760 -1.5870
N    3.9762 -0.2204 0.7561
N    1.2588 2.3699 6.6056
O    -0.9262 -1.5973 0.6916
O    -1.3210 -0.2987 2.4660
O    3.6272 0.3722 5.7222
O    3.8715 -0.7379 3.7769
O    0.4861 3.3635 3.0409
O    1.3305 3.8926 1.0448
O    1.1410 1.0821 1.1513
O    3.2542 3.2913 4.3270
O    3.6490 1.9927 2.5527
O    -1.2992 1.3217 -0.7035
O    -1.5434 2.4319 1.2418
O    1.8419 -1.6695 1.9778
O    0.9975 -2.1987 3.9739
O    1.1870 0.6119 3.8673
X    -1.6507 -2.1130 1.7654
X    4.7285 -0.9643 5.0826
X    0.6202 4.7122 2.6947
X    -3.8798 2.2535 6.7915
X    3.2081 -1.0630 -4.1582
X    3.9787 3.8070 3.2532
X    -2.4005 2.6582 -0.0639
X    1.7078 -3.0183 2.3240
X    6.2078 -0.5595 -1.7728
X    -0.8801 2.7570 9.1769
   0   49 S
   0   52 S
   0   58 S
   0   61 S
   1   48 S
   1   53 S
   1   56 S
   1   58 S
   1   62 S
   1   65 S
   2   51 S
   2   54 S
   2   59 S
   2   65 S
   3   50 S
   3   55 S
   3   58 S
   3   60 S
   3   63 S
   3   65 S
   4   58 S
   5   25 S
   6   26 S
   7   28 S
   8   29 S
   9   31 S
  10   32 S
  11   33 S
  12   34 S
  13   65 S
  14   38 S
  15   39 S
  16   41 S
  17   42 S
  18   44 S
  19   45 S
  20   46 S
  21   47 S
  22   52 A
  22   53 A
  22   66 S
  23   54 A
  23   55 A
  23   67 S
  24   56 S
  24   57 D
  24   68 S
  25   26 A
  25   48 A
  26   27 A
  27   28 A
  27   69 S
  28   27 A
  28   29 A
  29   28 A
  29   48 A
  30   31 A
  30   34 A
  30   70 S
  31   32 A
  32   49 A
  33   34 A
  33   49 A
  34   33 A
  34   30 A
  35   59 A
  35   60 A
  35   71 S
  36   61 A
  36   62 A
  36   72 S
  37   63 S
  37   64 D
  37   73 S
  38   39 A
  38   50 A
  39   40 A
  40   41 A
  40   74 S
  41   40 A
  41   42 A
  42   41 A
  42   50 A
  43   44 A
  43   47 A
  43   75 S
  44   45 A
  45   51 A
  46   47 A
  46   51 A
  47   46 A
  47   43 A
  69   27 S
  70   30 S
  74   40 S
  75   43 S
