34
   31   32   33
C    0.0000 0.0000 0.0000
C    -0.9644 0.4069 -0.8573
C    -2.2502 -0.0972 -0.8128
C    -2.5950 -1.0055 0.1286
C    -1.6501 -1.4976 0.9684
C    -0.3539 -0.9761 0.9287
N    -3.9314 -1.5123 0.2191
H    -4.7959 -0.3785 4.4086
H    -3.7317 -0.1136 2.3940
H    -5.4078 -3.4297 1.0414
H    -6.5147 -3.6891 3.0687
H    -7.5983 -1.3694 -2.2543
H    -6.4330 -1.0687 -0.3016
H    -3.2068 -2.6516 -1.9511
H    -4.3708 -2.9312 -3.9434
C    -5.7758 -2.0420 3.9752
C    -4.9463 -1.0008 3.7339
C    -4.3163 -0.8276 2.5162
C    -4.5419 -1.6938 1.5018
C    -5.3105 -2.7918 1.7114
C    -5.9560 -2.9568 2.9401
C    -6.1336 -2.1686 -3.3179
C    -6.7040 -1.6223 -2.2194
C    -6.0014 -1.4234 -1.0462
C    -4.6897 -1.7460 -0.9732
C    -4.0869 -2.3592 -2.0225
C    -4.7973 -2.5471 -3.2116
H    0.2826 -1.2859 1.5320
H    -2.8815 0.1870 -1.4351
H    -1.8639 -2.1768 1.5669
H    -0.7570 1.0494 -1.4970
X    0.7689 0.0150 -0.4023
X    -5.7632 -1.7629 4.4675
X    -6.9153 -2.3617 -3.4584
   0    1 A
   0    5 A
   0   31 S
   1    2 A
   1   30 S
   2    3 A
   2   28 S
   3    4 A
   3    6 S
   4    5 A
   4   29 S
   5   27 S
   6   18 S
   6   24 S
   7   16 S
   8   17 S
   9   19 S
  10   20 S
  11   22 S
  12   23 S
  13   25 S
  14   26 S
  15   16 A
  15   20 A
  15   32 S
  16   17 A
  17   18 A
  18   19 A
  19   20 A
  21   22 A
  21   26 A
  21   33 S
  22   23 A
  23   24 A
  24   25 A
  25   26 A
