41
   33   34   35   36   37   38   39   40
Co   0.0000 0.0000 0.0000
Co   -3.1951 -0.6065 0.2569
Co   -2.9346 -4.8281 -4.4014
Co   0.2605 -4.2216 -4.6584
Co   -1.4673 -2.4141 -2.2007
O    -0.3448 -1.3485 -3.6367
O    -0.3211 -2.5407 -5.5185
O    0.3587 -6.2900 -4.7623
O    -1.3505 -4.1985 -3.2766
O    -1.3124 -5.4534 -5.8513
O    -4.4225 -5.9827 -5.6976
O    -3.2238 -1.8360 -3.2846
O    -3.1968 -6.8599 -4.1109
O    -3.5244 -3.0483 -5.1398
H    -1.7644 0.0794 -1.7763
H    -1.1702 -4.9075 -2.6251
C    -2.4552 -3.3617 0.4965
C    -2.3155 1.6194 1.1148
C    1.1155 2.1784 0.6648
C    0.7007 -2.8236 0.0470
C    -0.4794 -1.4664 -4.8979
C    -0.6191 -6.4476 -5.5162
C    -4.0501 -7.0066 -5.0662
C    -3.6353 -2.0045 -4.4484
O    -2.6135 -2.2875 1.1171
O    -2.5898 -3.4796 -0.7647
O    -3.2933 1.4618 0.3609
O    -1.6222 0.6253 1.4498
O    -1.5841 -0.6297 -1.1248
O    1.4879 1.1545 1.2961
O    0.2622 2.0317 -0.2906
O    0.2893 -2.9922 -1.1168
O    0.5898 -1.7799 0.7383
X    -2.2719 -3.9645 0.9119
X    -2.1551 2.3102 1.3421
X    1.3542 2.8811 0.8157
X    1.0431 -3.4075 0.3878
X    -0.6627 -0.8636 -5.3133
X    -0.7795 -7.1383 -5.7435
X    -4.2888 -7.7092 -5.2171
X    -3.9777 -1.4206 -4.7892
   0   27 S
   0   28 S
   0   29 S
   0   30 S
   0   32 S
   1   24 S
   1   26 S
   1   27 S
   1   28 S
   2    8 S
   2    9 S
   2   10 S
   2   12 S
   2   13 S
   3    6 S
   3    7 S
   3    8 S
   3    9 S
   4    5 S
   4    8 S
   4   11 S
   4   25 S
   4   28 S
   4   31 S
   5   20 A
   6   20 A
   7   21 D
   8   15 S
   9   21 S
  10   22 A
  11   23 A
  12   22 A
  13   23 A
  14   28 S
  16   24 A
  16   25 A
  16   33 S
  17   26 D
  17   27 S
  17   34 S
  18   29 A
  18   30 A
  18   35 S
  19   31 A
  19   32 A
  19   36 S
  20   37 S
  21   38 S
  22   39 S
  23   40 S
  35   18 S
  39   22 S
