50
   47   48   49
O    0.0000 0.0000 0.0000
O    -3.1739 -1.6641 0.6429
O    -2.2744 -1.9818 3.7121
H    -1.8160 0.4812 0.6686
H    -0.6288 0.8845 1.6715
H    -5.5801 -1.2452 0.2496
H    -1.4141 -0.1858 3.6137
H    -2.7666 -0.3031 2.7561
H    -3.8560 -3.7413 7.3666
H    -7.1092 -2.4273 -1.0422
H    -0.1048 4.2876 -1.1874
H    -0.9033 2.4960 0.0711
H    0.0781 -2.5911 2.6653
H    0.7009 -1.1236 2.7893
H    0.7690 -1.9058 1.3947
H    -1.3537 -2.2822 0.0741
H    -1.8993 -3.0186 1.3916
H    -2.7062 -3.9557 -0.6036
H    1.8860 0.1021 -1.6185
H    2.7755 1.9356 -2.7303
H    -3.0606 0.1926 4.9993
H    -4.0242 0.2741 7.1065
H    -4.2138 -5.1142 -1.9528
H    -2.8773 -3.8365 5.2504
C    -1.1280 -1.1330 1.7880
C    -0.9489 0.1869 1.0468
C    -2.8797 -1.8394 4.9313
C    -5.3048 -2.0322 -0.2042
C    -1.9403 -0.7806 3.0223
C    -3.6863 -2.9383 6.8871
C    -3.9907 -2.4695 -0.0953
C    -5.8147 -3.8970 -1.6382
C    -6.2127 -2.7330 -0.9681
C    0.3174 3.4398 -1.2570
C    -0.1710 2.3739 -0.5219
C    0.4154 1.1300 -0.6595
C    0.2288 -1.7440 2.1964
C    -1.8492 -2.1492 0.9197
C    -3.5931 -3.6330 -0.7140
C    1.4968 0.9618 -1.5066
C    2.0039 2.0434 -2.1858
C    1.4056 3.2923 -2.0905
C    -3.2193 -0.6094 5.4834
C    -3.7845 -0.5634 6.7268
C    -4.0113 -1.7364 7.4438
C    -4.4968 -4.3287 -1.5006
C    -3.1116 -2.9969 5.6286
X    -6.1155 -4.2296 -2.2950
X    1.6562 4.0034 -2.2242
X    -4.4728 -1.9390 7.9095
   0   25 S
   0   35 S
   1   30 S
   1   37 S
   2   26 S
   2   28 S
   3   25 S
   4   25 S
   5   27 S
   6   28 S
   7   28 S
   8   29 S
   9   32 S
  10   33 S
  11   34 S
  12   36 S
  13   36 S
  14   36 S
  15   37 S
  16   37 S
  17   38 S
  18   39 S
  19   40 S
  20   42 S
  21   43 S
  22   45 S
  23   46 S
  24   25 S
  24   28 S
  24   36 S
  24   37 S
  26   42 A
  26   46 A
  27   30 A
  27   32 A
  29   44 A
  29   46 A
  30   38 A
  31   32 A
  31   45 A
  31   47 S
  33   34 A
  33   41 A
  34   35 A
  35   39 A
  38   45 A
  39   40 A
  40   19 S
  40   41 A
  41   48 S
  42   43 A
  43   44 A
  44   49 S
