28
   22   23   24   25   26   27
Sc   0.0000 0.0000 0.0000
Sc   -1.7540 3.0381 0.0000
Sc   1.7540 3.0381 0.0000
C    2.2869 0.7051 2.0122
C    -2.2869 0.7051 2.0122
C    0.0000 4.6661 2.0122
C    -2.2869 0.7051 -2.0122
C    2.2869 0.7051 -2.0122
C    0.0000 4.6661 -2.0122
O    1.4621 -0.1166 1.5096
O    -2.5861 1.8302 1.5096
O    1.1240 4.3626 1.5096
O    -1.4621 -0.1166 -1.5096
O    2.5861 1.8302 -1.5096
O    -1.1240 4.3626 -1.5096
O    1.4621 -0.1166 -1.5096
O    -2.5861 1.8302 -1.5096
O    1.1240 4.3626 -1.5096
O    -1.4621 -0.1166 1.5096
O    2.5861 1.8302 1.5096
O    -1.1240 4.3626 1.5096
O    0.0000 2.0253 0.0000
X    2.5012 0.4123 2.6616
X    -2.7156 0.7338 2.6616
X    0.2142 4.9302 2.6616
X    -2.7156 0.7338 -2.6616
X    2.5012 0.4123 -2.6616
X    0.2142 4.9302 -2.6616
   0    9 S
   0   12 S
   0   15 S
   0   18 S
   0   21 S
   1   10 S
   1   14 S
   1   16 S
   1   20 S
   1   21 S
   2   11 S
   2   13 S
   2   17 S
   2   19 S
   2   21 S
   3    9 A
   3   19 A
   3   22 S
   4   10 A
   4   18 A
   4   23 S
   5   11 A
   5   20 A
   5   24 S
   6   12 A
   6   16 A
   6   25 S
   7   13 A
   7   15 A
   7   26 S
   8   14 A
   8   17 A
   8   27 S
