27
   21   22   23   24   25   26
O    0.0000 0.0000 0.0000
O    1.4693 1.2883 -1.0923
Co   3.1040 1.3492 0.0834
O    -0.3708 -2.8218 0.8712
O    2.0293 -2.2306 2.8511
Co   0.9926 -1.2078 1.3736
O    -0.4264 -0.5517 2.7472
Co   -0.9496 -3.8955 2.6638
O    2.2108 0.5184 1.8759
O    4.2690 1.3010 1.9177
O    -0.6094 -5.0108 0.8295
O    0.9535 -4.1567 3.3097
O    -1.3028 -2.2982 3.8395
C    3.2497 -1.5209 -0.7398
C    0.3262 0.8144 -0.8763
C    -0.4193 -3.9228 0.2221
C    1.8645 -3.3131 3.4870
C    -1.1323 -1.0727 3.6235
C    3.2641 0.8428 2.5250
O    2.2437 -1.9533 -0.1039
O    3.8365 -0.4267 -0.5625
X    3.3470 -2.0517 -1.1885
X    -0.2203 1.1243 -1.2939
X    -0.5004 -3.9920 -0.4889
X    2.3875 -3.5391 3.9665
X    -1.3102 -0.4990 4.0054
X    3.3567 0.8980 3.2367
   0    5 S
   0   14 A
   1    2 S
   1   14 A
   2    8 S
   2    9 S
   2   20 S
   3    5 S
   3    7 S
   3   15 S
   4    5 S
   4   16 A
   5    6 S
   5    8 S
   5   19 S
   6   17 A
   7   10 S
   7   11 S
   7   12 S
   8   18 S
   9   18 D
  10   15 D
  11   16 A
  12   17 A
  13   19 A
  13   20 A
  13   21 S
  14   22 S
  15   23 S
  16   24 S
  17   25 S
  18   26 S
