116
  104  105  106  107  108  109  110  111  112  113  114  115
Ni   0.0000 0.0000 0.0000
Ni   1.9465 -3.3714 0.0000
Ni   1.9465 -1.1238 -3.1786
Ni   3.8930 0.0000 0.0000
Ni   1.9465 1.1238 -1.5893
Ni   3.8930 -2.2476 -1.5893
Ni   1.9465 -1.1238 1.5893
Ni   -0.0000 -2.2476 -1.5893
H    1.9465 1.3523 0.9562
H    1.9465 -3.5999 -2.5455
H    -0.1979 0.1142 -2.5455
H    4.0908 -2.3618 0.9562
H    -0.1979 -2.3618 0.9562
H    4.0908 0.1142 -2.5455
H    6.0339 -4.9311 -1.9516
H    0.6930 4.3196 -1.9516
H    3.2000 -0.4001 4.7231
H    -2.1409 -3.4837 -3.9986
H    7.2874 -2.7600 -1.9516
H    -3.3944 -2.7600 -1.9516
H    1.9465 3.5959 -3.9986
H    1.9465 -2.5712 4.7231
H    6.0339 -3.4837 -3.9986
H    0.6930 -0.4001 4.7231
H    -2.1409 -4.9311 -1.9516
H    3.2000 4.3196 -1.9516
H    3.2000 -6.5672 0.3623
H    -2.1409 2.6835 0.3623
H    0.6930 -1.8475 -6.3124
H    6.0339 1.2361 2.4093
H    0.6930 -6.5672 0.3623
H    6.0339 2.6835 0.3623
H    -2.1409 1.2361 2.4093
H    3.2000 -1.8475 -6.3124
H    1.9465 -5.8435 2.4093
H    1.9465 0.3236 -6.3124
H    7.2874 0.5123 0.3623
H    -3.3944 0.5123 0.3623
C    4.8699 -6.1873 -0.7947
C    -0.9769 3.9397 -0.7947
C    4.8699 0.5640 3.9793
C    -0.9769 -2.8116 -5.5686
C    7.7933 -1.1238 -0.7947
C    -3.9003 -1.1238 -0.7947
C    1.9465 2.2519 -5.5686
C    1.9465 -4.4995 3.9793
C    4.8699 -2.8116 -5.5686
C    -0.9769 0.5640 3.9793
C    -0.9769 -6.1873 -0.7947
C    4.8699 3.9397 -0.7947
C    5.2482 -5.0460 -1.4298
C    0.2006 3.6966 -1.4298
C    3.6924 -0.1158 3.9618
C    -1.3552 -3.0300 -4.2808
C    6.9941 -2.0221 -1.4298
C    -3.1011 -2.0221 -1.4298
C    1.9465 2.6887 -4.2808
C    1.9465 -3.1398 3.9618
C    5.2482 -3.0300 -4.2808
C    0.2006 -0.1158 3.9618
C    -1.3552 -5.0460 -1.4298
C    3.6924 3.6966 -1.4298
C    3.6924 -5.9442 -0.1595
C    -1.3552 2.7984 -0.1595
C    0.2006 -2.1318 -5.5511
C    5.2482 0.7824 2.6915
C    0.2006 -5.9442 -0.1595
C    5.2482 2.7984 -0.1595
C    -1.3552 0.7824 2.6915
C    3.6924 -2.1318 -5.5511
C    1.9465 -4.9363 2.6915
C    1.9465 0.8922 -5.5511
C    6.9941 -0.2256 -0.1595
C    -3.1011 -0.2256 -0.1595
N    4.3045 -4.0975 -1.1873
N    0.5502 2.4052 -1.1873
N    3.3428 -0.3177 2.6634
N    -0.4116 -2.4852 -3.4674
N    5.7008 -1.6791 -1.1873
N    -1.8078 -1.6791 -1.1873
N    1.9465 1.5990 -3.4674
N    1.9465 -2.7361 2.6634
N    4.3045 -2.4852 -3.4674
N    0.5502 -0.3177 2.6634
N    -0.4116 -4.0975 -1.1873
N    3.3428 2.4052 -1.1873
N    3.3428 -4.6528 -0.4020
N    -0.4116 1.8499 -0.4020
N    0.5502 -1.9300 -4.2527
N    4.3045 0.2376 1.8781
N    0.5502 -4.6528 -0.4020
N    4.3045 1.8499 -0.4020
N    -0.4116 0.2376 1.8781
N    3.3428 -1.9300 -4.2527
N    1.9465 -3.8467 1.8781
N    1.9465 0.4885 -4.2527
N    5.7008 -0.5685 -0.4020
N    -1.8078 -0.5685 -0.4020
O    1.9465 0.5767 0.4078
O    1.9465 -2.8244 -1.9971
O    0.4738 -0.2735 -1.9971
O    3.4192 -1.9741 0.4078
O    0.4738 -1.9741 0.4078
O    3.4192 -0.2735 -1.9971
X    5.6201 -6.4618 -0.6361
X    -1.7272 4.2142 -0.9532
X    4.8700 0.5641 4.5917
X    -0.9770 -2.8117 -6.1810
X    8.5436 -0.7487 -0.4196
X    -4.6506 -1.4989 -1.1697
X    1.9464 2.9014 -5.9646
X    1.9466 -5.1490 4.3753
X    5.6200 -2.4366 -5.8060
X    -1.7271 0.1890 4.2167
X    -0.9769 -6.8369 -1.0111
X    4.8699 4.5893 -0.5782
   0   87 S
   0   92 S
   0   97 S
   0   98 S
   0  100 S
   0  102 S
   1   86 S
   1   90 S
   1   94 S
   1   99 S
   1  101 S
   1  102 S
   2   88 S
   2   93 S
   2   95 S
   2   99 S
   2  100 S
   2  103 S
   3   89 S
   3   91 S
   3   96 S
   3   98 S
   3  101 S
   3  103 S
   4   75 S
   4   80 S
   4   85 S
   4   98 S
   4  100 S
   4  103 S
   5   74 S
   5   78 S
   5   82 S
   5   99 S
   5  101 S
   5  103 S
   6   76 S
   6   81 S
   6   83 S
   6   98 S
   6  101 S
   6  102 S
   7   77 S
   7   79 S
   7   84 S
   7   99 S
   7  100 S
   7  102 S
   8   98 S
   9   99 S
  10  100 S
  11  101 S
  12  102 S
  13  103 S
  14   50 S
  15   51 S
  16   52 S
  17   53 S
  18   54 S
  19   55 S
  20   56 S
  21   57 S
  22   58 S
  23   59 S
  24   60 S
  25   61 S
  26   62 S
  27   63 S
  28   64 S
  29   65 S
  30   66 S
  31   67 S
  32   68 S
  33   69 S
  34   70 S
  35   71 S
  36   72 S
  37   73 S
  38   50 A
  38   62 A
  38  104 S
  39   51 A
  39   63 A
  39  105 S
  40   52 A
  40   65 A
  40  106 S
  41   53 A
  41   64 A
  41  107 S
  42   54 A
  42   72 A
  42  108 S
  43   55 A
  43   73 A
  43  109 S
  44   56 A
  44   71 A
  44  110 S
  45   57 A
  45   70 A
  45  111 S
  46   58 A
  46   69 A
  46  112 S
  47   59 A
  47   68 A
  47  113 S
  48   60 A
  48   66 A
  48  114 S
  49   61 A
  49   67 A
  49  115 S
  50   74 A
  51   75 A
  52   76 A
  53   77 A
  54   78 A
  55   79 A
  56   80 A
  57   81 A
  58   82 A
  59   83 A
  60   84 A
  61   85 A
  62   86 A
  63   87 A
  64   88 A
  65   89 A
  66   90 A
  67   91 A
  68   92 A
  69   93 A
  70   94 A
  71   95 A
  72   96 A
  73   97 A
  74   86 A
  75   87 A
  76   89 A
  77   88 A
  78   96 A
  79   97 A
  80   95 A
  81   94 A
  82   93 A
  83   92 A
  84   90 A
  85   91 A
