33
   26   27   28   29   30   31   32
O    0.0000 0.0000 0.0000
O    -3.1023 -1.1775 3.4958
O    2.4270 0.9598 1.3637
O    1.2417 -0.8504 5.5187
O    -0.4679 1.7006 5.7647
O    -0.3346 0.3823 2.8990
Zn   1.1506 -0.4210 1.9255
Zn   -0.3620 2.2478 2.4673
Zn   -1.8336 -0.6014 2.1002
Zn   -0.3275 0.0000 4.7783
O    2.3778 -0.8039 3.5921
O    -1.9220 2.9807 1.5684
O    1.2948 2.8705 1.6308
O    -1.9615 -0.8918 5.4027
O    -3.0570 1.0874 1.8000
O    -0.4079 3.2670 4.1613
C    -0.9394 -0.6392 -0.4590
C    2.3489 2.2195 1.3967
C    -2.9713 2.2979 1.5457
C    -3.0089 -1.1095 4.7419
C    2.2983 -0.9448 4.8199
C    0.2329 -2.9687 1.7751
C    -0.5316 2.8950 5.3565
O    1.1972 -2.2701 1.3489
O    -0.7178 -2.5376 2.4244
O    -1.9192 -1.1049 0.2258
X    -0.9615 -0.8091 -1.1928
X    2.9931 2.5061 1.2833
X    -3.6006 2.7360 1.3957
X    -3.6490 -1.1291 5.1244
X    2.9379 -1.1846 5.1753
X    0.2108 -3.7016 1.5933
X    -0.6180 3.4430 5.8680
   0    6 S
   0   16 A
   1    8 S
   1   19 A
   2    6 S
   2   17 A
   3    9 S
   3   20 A
   4    9 S
   4   22 A
   5    6 S
   5    7 S
   5    8 S
   5    9 S
   6   10 S
   6   23 S
   7   11 S
   7   12 S
   7   15 S
   8   14 S
   8   24 S
   8   25 S
   9   13 S
  10   20 A
  11   18 A
  12   17 A
  13   19 A
  14   18 A
  15   22 A
  16   25 A
  16   26 S
  17   27 S
  18   28 S
  19   29 S
  20   30 S
  21   23 A
  21   24 A
  21   31 S
  22   32 S
