59
   47   48   49   50   51   52   53   54   55   56   57   58
C    0.0000 0.0000 0.0000
C    -5.8209 1.3914 -3.3433
O    -2.1574 -1.0808 -3.0756
O    -2.5992 1.9593 1.5270
O    -4.7386 2.0074 1.1546
Zn   -2.9584 1.7723 -3.3538
C    -3.7351 2.1288 1.7768
O    -3.3972 -5.8684 -3.1544
O    -0.0656 1.2300 0.2752
Zn   -1.7226 2.2093 -0.2467
O    -2.6509 -4.0237 -2.2373
O    -0.8719 -0.6263 -0.5554
Zn   -0.5122 -6.4338 0.4938
Zn   -1.8112 -6.8931 -2.5421
H    -2.7029 0.3251 -1.4219
H    -0.8301 -4.9723 -1.4219
Zn   -4.8775 1.0939 -0.6652
Zn   1.3171 -5.7871 -2.2174
C    0.2862 -7.0936 -4.5395
O    -3.0301 1.2505 -1.4219
Zn   -1.7749 -2.2999 -1.4219
O    1.2575 -6.8128 -3.8998
O    -0.5036 -5.8957 -1.4219
O    -0.8855 -6.8647 -4.3708
C    -0.5975 3.2381 -2.6992
O    -2.3273 -7.3744 0.6441
C    -2.7477 -8.1662 -0.1621
O    -3.5723 -1.5810 -0.6347
C    -1.2719 -3.8896 1.4044
C    -2.2897 -0.8096 -4.2459
O    1.3649 -6.7748 0.9903
O    2.4883 -5.6718 -0.5390
O    -5.9157 0.7867 -2.3399
O    -4.9211 1.9429 -3.8866
O    1.8627 -4.0088 -2.9104
C    2.3434 -6.3663 0.4360
O    -5.3942 -0.6540 0.1442
O    -0.0045 -3.0880 -2.2270
C    1.1144 -3.0459 -2.7868
O    -1.1002 2.4893 -3.4528
O    -0.7137 3.4304 -1.5336
O    -2.6815 -8.2054 -1.3562
O    -0.9665 -5.0090 1.7992
C    -4.6116 -1.6305 -0.0197
O    -2.6230 0.3258 -4.6850
O    -1.3361 -3.5588 0.1987
C    -3.5008 -4.6776 -2.8832
X    0.6156 -0.4605 0.1120
X    -6.6608 1.5701 -3.3851
X    -3.3513 2.6917 1.9893
X    -0.1150 -7.7364 -4.6429
X    -0.1412 3.4151 -3.3291
X    -3.1127 -8.4430 0.4864
X    -0.9511 -3.2045 1.4087
X    -2.6735 -1.5178 -4.2028
X    3.1093 -6.6760 0.5059
X    1.4148 -2.6565 -3.3935
X    -4.8437 -2.0274 0.6082
X    -4.1220 -4.2644 -3.0245
   0    8 A
   0   11 A
   0   47 S
   1   32 A
   1   33 A
   1   48 S
   2   20 S
   2   29 A
   3    6 A
   3    9 S
   4    6 A
   4   16 S
   5   19 S
   5   33 S
   5   39 S
   5   44 S
   6   49 S
   7   13 S
   7   46 A
   8    9 S
   9   19 S
   9   40 S
  10   20 S
  10   46 A
  11   20 S
  12   22 S
  12   25 S
  12   30 S
  12   42 S
  13   22 S
  13   23 S
  13   41 S
  14   19 S
  15   22 S
  16   19 S
  16   32 S
  16   36 S
  17   21 S
  17   22 S
  17   31 S
  17   34 S
  18   21 A
  18   23 A
  18   50 S
  20   27 S
  20   37 S
  20   45 S
  24   39 A
  24   40 A
  24   51 S
  25   26 A
  26   41 A
  26   52 S
  27   43 A
  28   42 A
  28   45 A
  28   53 S
  29   44 A
  29   54 S
  30   35 A
  31   35 A
  34   38 A
  35   55 S
  36   43 A
  37   38 A
  38   56 S
  43   57 S
  46   58 S
