27
   21   22   23   24   25   26
Mn   0.0000 0.0000 0.0000
Ni   -0.3636 -3.2541 -1.4024
O    1.8059 1.0193 -0.5302
Ni   0.3636 3.2541 1.4024
O    1.8517 3.1577 0.0120
O    -1.0447 4.0609 -0.0629
O    -1.0093 1.9214 0.3789
O    1.2798 2.0347 2.7333
O    0.5537 0.0113 2.0773
C    -2.2803 -2.1511 0.5826
C    1.5264 -2.9130 0.2456
C    -1.1220 -0.7919 -2.8846
C    2.2803 2.1511 -0.5826
C    -1.5264 2.9130 -0.2456
C    1.1220 0.7919 2.8846
O    -1.8059 -1.0193 0.5302
O    -1.8517 -3.1577 -0.0120
O    1.0447 -4.0609 0.0629
O    1.0093 -1.9214 -0.3789
O    -1.2798 -2.0347 -2.7333
O    -0.5537 -0.0113 -2.0773
X    -2.6912 -1.8927 1.1390
X    2.3865 -3.0149 0.2986
X    -1.6080 -0.5067 -3.3700
X    2.6912 1.8927 -1.1390
X    -2.3865 3.0149 -0.2986
X    1.6080 0.5067 3.3700
   0    2 S
   0    6 S
   0    8 S
   0   15 S
   0   18 S
   0   20 S
   1   16 S
   1   17 S
   1   18 S
   1   19 S
   2   12 A
   3    4 S
   3    5 S
   3    6 S
   3    7 S
   4   12 A
   5   13 D
   6   13 S
   7   14 A
   8   14 A
   9   15 A
   9   16 A
   9   21 S
  10   17 D
  10   18 S
  10   22 S
  11   19 A
  11   20 A
  11   23 S
  12   24 S
  13   25 S
  14   26 S
