29
   25   26   27   28
O    0.0000 0.0000 0.0000
O    -1.2349 -1.5302 1.1195
O    -0.9030 -3.6603 -2.5033
O    -0.9801 -5.7106 -3.3999
O    -4.4431 -5.5669 0.0000
O    -3.2081 -4.0366 1.1195
O    -3.5401 -1.9066 -2.5033
O    -3.4630 0.1437 -3.3999
H    -0.7292 -3.3637 0.5286
H    -0.2561 -2.2607 -0.4535
H    -2.7691 -4.2118 -2.1275
H    -1.7537 -4.7528 -1.0858
H    -3.7139 -2.2032 0.5286
H    -4.1869 -3.3062 -0.4535
H    -1.6740 -1.3551 -2.1275
H    -2.6894 -0.8141 -1.0858
C    -0.6665 -0.3398 0.9329
C    -0.9670 -2.5482 0.1011
C    -1.9863 -4.0118 -1.6248
C    -0.4574 -4.6129 -3.3636
C    -3.7766 -5.2271 0.9329
C    -3.4760 -3.0187 0.1011
C    -2.4567 -1.5551 -1.6248
C    -3.9857 -0.9539 -3.3636
C    -2.2215 -2.7834 -0.7645
X    -0.8102 0.1111 1.5186
X    0.0915 -4.4104 -3.7860
X    -3.6328 -5.6780 1.5186
X    -4.5345 -1.1565 -3.7860
   0   16 D
   1   16 S
   1   17 S
   2   18 S
   2   19 S
   3   19 D
   4   20 D
   5   20 S
   5   21 S
   6   22 S
   6   23 S
   7   23 D
   8   17 S
   9   17 S
  10   18 S
  11   18 S
  12   21 S
  13   21 S
  14   22 S
  15   22 S
  16   25 S
  17   24 S
  18   24 S
  19   26 S
  20   27 S
  21   24 S
  22   24 S
  23   28 S
