40
   36   37   38   39
H    0.0000 0.0000 0.0000
H    1.8512 1.0688 -9.8199
O    3.4619 -2.9905 -7.7529
H    3.9167 -2.5087 -9.8199
H    2.0655 -3.5775 0.0000
O    2.7101 -3.4245 -2.0670
H    0.1081 -2.3226 3.3664
H    3.8086 -0.1861 -13.1864
H    0.7715 0.8013 -4.9100
H    3.1452 -3.3100 -4.9100
C    -0.0507 -1.0579 1.7625
C    0.2847 -0.7699 0.4385
C    1.2122 -0.4948 -2.2627
C    1.6464 -0.8268 -3.7527
C    2.7928 0.5838 -11.5824
C    2.3756 0.4373 -10.2584
C    1.6736 -0.2284 -7.5573
C    1.7441 -0.7704 -6.0672
C    3.9674 -1.4507 -11.5824
C    3.6319 -1.7388 -10.2584
C    2.7045 -2.0139 -7.5573
C    2.2703 -1.6819 -6.0672
C    1.1239 -3.0925 1.7625
C    1.5411 -2.9460 0.4385
C    2.2431 -2.2803 -2.2627
C    2.1726 -1.7383 -3.7527
C    0.3449 -2.1859 2.4754
C    1.0919 -1.7546 -0.1806
C    3.5718 -0.3228 -12.2953
C    2.8247 -0.7541 -9.6393
C    1.2366 -0.0043 -4.9100
C    2.6800 -2.5043 -4.9100
N    1.3767 -1.5902 -1.7008
N    2.5400 -0.9185 -8.1192
O    0.4548 0.4818 -2.0670
O    1.2066 0.9158 -7.7529
X    -0.9330 -1.1165 1.7897
X    2.3511 1.1271 -11.8895
X    4.8497 -1.3922 -11.6097
X    1.5655 -3.6358 2.0695
   0   11 S
   1   15 S
   2   20 S
   3   19 S
   4   23 S
   5   24 S
   6   26 S
   7   28 S
   8   30 S
   9   31 S
  10   11 A
  10   26 A
  10   36 S
  11   27 A
  12   13 A
  12   32 A
  12   34 S
  13   25 A
  13   30 A
  14   15 A
  14   28 A
  14   37 S
  15   29 A
  16   17 A
  16   33 A
  16   35 S
  17   21 A
  17   30 A
  18   19 A
  18   28 A
  18   38 S
  19   29 A
  20   21 A
  20   33 A
  21   31 A
  22   23 A
  22   26 A
  22   39 S
  23   27 A
  24   25 A
  24   32 A
  25   31 A
  27   32 S
  29   33 S
