45
   42   43   44
N    0.0000 0.0000 0.0000
N    0.7582 -0.9917 -0.5850
N    3.7315 -1.8244 2.6403
N    3.5387 -2.3669 1.3844
N    0.0964 0.6493 3.6336
N    1.0714 0.0476 4.3841
C    -1.5275 1.8406 -0.6569
C    -0.6247 0.6895 -0.9674
C    -0.2632 0.1456 -2.2006
Cu   0.0504 0.2897 1.8182
Cu   2.3692 -0.9418 3.5100
C    0.6136 -0.8863 -1.9135
Cu   2.0391 -1.8595 0.4369
C    5.0013 -2.0337 3.0022
C    1.3273 -1.8041 -2.8439
C    5.5129 -1.5166 4.2989
C    -1.9316 2.0019 3.9144
C    -0.7433 1.2685 4.4631
C    -0.3133 1.1151 5.7745
C    0.8342 0.3364 5.6725
C    5.6594 -2.7163 1.9799
C    4.7103 -2.8896 0.9807
C    1.7369 -0.1479 6.7482
C    4.8252 -3.5079 -0.3747
H    -0.9899 2.6423 -0.4987
H    -2.0521 1.6349 0.1439
H    -2.1318 1.9954 -1.4138
H    2.2263 -1.9834 -2.4999
H    1.3940 -1.3873 -3.7293
H    0.8323 -2.6442 -2.9155
H    5.0754 -0.6617 4.5060
H    6.4805 -1.3826 4.2371
H    5.3164 -2.1636 5.0089
H    3.9466 -3.8364 -0.6594
H    5.4573 -4.2570 -0.3416
H    5.1440 -2.8383 -1.0121
H    -1.7406 2.2911 2.9973
H    -2.1188 2.7856 4.4746
H    -2.7101 1.4085 3.9123
H    2.5952 -0.4122 6.3570
H    1.3291 -0.9159 7.1952
H    1.8834 0.5675 7.4013
X    -0.3805 0.4549 -2.8586
X    -0.4937 1.4857 6.3850
X    6.2833 -3.2426 1.9799
   0    1 A
   0    7 A
   0    9 S
   1   11 A
   1   12 S
   2    3 A
   2   10 S
   2   13 A
   3   12 S
   3   21 A
   4    5 A
   4    9 S
   4   17 A
   5   10 S
   5   19 A
   6    7 S
   6   24 S
   6   25 S
   6   26 S
   7    8 A
   8   11 A
   8   42 S
  11   14 S
  13   15 S
  13   20 A
  14   27 S
  14   28 S
  14   29 S
  15   30 S
  15   31 S
  15   32 S
  16   17 S
  16   36 S
  16   37 S
  16   38 S
  17   18 A
  18   19 A
  18   43 S
  19   22 S
  20   21 A
  20   44 S
  21   23 S
  22   39 S
  22   40 S
  22   41 S
  23   33 S
  23   34 S
  23   35 S
