27
   21   22   23   24   25   26
Co   0.0000 0.0000 0.0000
Co   6.3657 3.3365 -0.1907
Co   3.1829 1.6683 -0.0954
C    0.2504 1.9820 -1.6366
C    2.3417 -1.0616 -1.2518
C    5.0533 2.1424 -2.5231
O    7.1151 2.0750 1.1507
O    5.0806 1.4041 0.7818
O    3.2857 3.6950 0.3273
O    5.2644 4.5426 0.9004
O    2.3997 1.4027 1.7742
O    0.2941 0.6470 1.8026
O    -0.7494 1.2615 -1.3414
O    1.2851 1.9324 -0.9725
O    3.0801 -0.3585 -0.5180
O    1.1014 -1.2061 -1.0911
O    3.9660 1.9338 -1.9649
O    6.0716 2.6895 -1.9933
C    6.1154 1.3545 1.4458
C    4.0240 4.3981 1.0611
C    1.3124 1.1941 2.3324
X    0.3435 2.2807 -2.3926
X    2.4537 -1.5879 -1.5963
X    4.9691 1.8482 -3.0756
X    6.0222 1.0558 2.2019
X    3.9121 4.9244 1.4056
X    1.3966 1.4883 2.8849
   0   11 S
   0   12 S
   0   15 S
   1    6 S
   1    9 S
   1   17 S
   2    7 S
   2    8 S
   2   10 S
   2   13 S
   2   14 S
   2   16 S
   3   12 A
   3   13 A
   3   21 S
   4   14 A
   4   15 A
   4   22 S
   5   16 A
   5   17 A
   5   23 S
   6   18 A
   7   18 A
   8   19 A
   9   19 A
  10   20 A
  11   20 A
  18   24 S
  19   25 S
  20   26 S
