24
   20   21   22   23
H    0.0000 0.0000 0.0000
H    4.5485 1.4047 6.0399
H    7.0175 1.0320 2.8676
H    8.5194 1.7678 6.5746
H    3.9710 0.3631 0.5347
H    1.5020 0.7357 3.7070
C    6.4162 1.7316 6.5846
C    8.0119 1.3089 4.6413
C    7.7815 1.6231 6.0126
C    5.4330 1.4201 5.7222
C    6.9163 1.1363 3.7976
C    5.6478 1.1224 4.4128
C    2.1032 0.0362 -0.0101
C    0.5076 0.4589 1.9333
C    0.7379 0.1446 0.5620
C    3.0865 0.3476 0.8524
C    1.6032 0.6315 2.7770
C    2.8716 0.6454 2.1618
N    4.5858 0.9916 3.5748
N    3.9336 0.7762 2.9998
X    6.2203 1.6895 7.2466
X    8.7895 1.4856 4.5643
X    2.2992 0.0783 -0.6720
X    -0.2700 0.2822 2.0103
   0   14 S
   1    9 S
   2   10 S
   3    8 S
   4   15 S
   5   16 S
   6    8 A
   6    9 A
   6   20 S
   7    8 A
   7   10 A
   7   21 S
   9   11 A
  10   11 A
  11   18 S
  12   14 A
  12   15 A
  12   22 S
  13   14 A
  13   16 A
  13   23 S
  15   17 A
  16   17 A
  17   19 S
  18   19 D
