12
    6    7    8    9   10   11
C    0.0000 0.0000 0.0000
C    0.7700 -1.3336 0.0000
C    2.3100 -1.3336 0.0000
C    3.0800 0.0000 0.0000
C    2.3100 1.3336 0.0000
C    0.7700 1.3336 0.0000
X    -0.7500 0.0000 0.0000
X    0.3950 -1.9831 0.0000
X    2.6850 -1.9831 0.0000
X    3.8300 0.0000 0.0000
X    2.6850 1.9831 0.0000
X    0.3950 1.9831 0.0000
   0    1 A
   0    5 A
   1    2 A
   2    3 A
   3    4 A
   4    5 A
   6    0 S
   7    1 S
   8    2 S
   9    3 S
  10    4 S
  11    5 S
