49
   45   46   47   48
H    0.0000 0.0000 0.0000
H    -1.1226 0.2782 -2.0002
H    -4.4348 -1.3938 -0.3964
H    -3.3036 -1.6795 1.6088
H    3.0989 0.7292 4.0783
H    4.8046 2.2900 4.2790
H    3.7748 3.8447 0.6767
H    2.1031 2.2479 0.4660
H    3.4300 -1.6780 2.4629
H    5.0888 -3.2613 2.1362
H    2.9805 -5.9091 4.3238
H    1.3039 -4.3424 4.6256
H    -3.9164 -0.9473 6.1564
H    -2.3678 -0.8059 4.4365
H    -1.3431 0.9743 8.6260
H    0.1920 1.1337 6.9011
C    -1.5361 -0.8786 1.0052
C    -0.9009 -0.2888 -0.0796
C    -1.5688 -0.1225 -1.2638
C    -2.8871 -0.5297 -1.4021
C    -3.5301 -1.1127 -0.3181
C    -2.8573 -1.2817 0.8699
C    2.4204 1.3399 2.2642
C    3.2385 1.3641 3.3860
C    4.2448 2.2913 3.5113
C    4.4424 3.2371 2.5002
C    3.6377 3.2096 1.3694
C    2.6424 2.2670 1.2485
C    2.1798 -2.8639 3.5403
C    3.3272 -2.5492 2.8274
C    4.3161 -3.4828 2.6424
C    4.1891 -4.7494 3.1928
C    3.0669 -5.0476 3.9314
C    2.0695 -4.1212 4.1100
C    -0.9292 0.1925 5.4808
C    -3.0803 -0.5222 6.3062
C    -2.1608 -0.4342 5.2859
C    -2.7845 0.0110 7.5557
C    -1.5549 0.6201 7.7695
C    -0.6439 0.7115 6.7460
O    -0.9284 -1.0784 2.1730
O    1.4407 0.4381 2.1121
O    1.1977 -1.9879 3.7264
O    -0.0344 0.3430 4.5110
Al   0.4410 -0.5697 3.1086
X    -3.2519 -0.4311 -2.0045
X    4.9364 3.7548 2.5463
X    4.6901 -5.2494 3.0742
X    -3.2346 -0.0220 8.1210
   0   17 S
   1   18 S
   2   20 S
   3   21 S
   4   23 S
   5   24 S
   6   26 S
   7   27 S
   8   29 S
   9   30 S
  10   32 S
  11   33 S
  12   35 S
  13   36 S
  14   38 S
  15   39 S
  16   17 A
  16   21 A
  16   40 S
  17   18 A
  18   19 A
  19   20 A
  19   45 S
  20   21 A
  22   23 A
  22   27 A
  22   41 S
  23   24 A
  24   25 A
  25   26 A
  25   46 S
  26   27 A
  28   29 A
  28   33 A
  28   42 S
  29   30 A
  30   31 A
  31   32 A
  31   47 S
  32   33 A
  34   36 A
  34   39 A
  34   43 S
  35   36 A
  35   37 A
  37   38 A
  37   48 S
  38   39 A
  40   44 S
  41   44 S
  42   44 S
  43   44 S
