25
   19   20   21   22   23   24
O    0.0000 0.0000 0.0000
O    0.2305 1.9672 -0.9689
La   -2.2823 1.3287 -0.6194
C    -2.2513 -1.6336 -0.7346
O    -3.9902 3.3429 -1.2389
O    -1.9047 4.0966 -3.5898
O    -2.0012 1.9528 -2.9474
C    0.6913 0.9520 -0.4956
O    -1.7171 1.7147 1.7086
O    -2.0939 3.9145 -0.2700
C    -2.0707 2.8579 -3.8041
C    -3.1741 4.1903 -0.7433
C    -5.2041 0.8402 -0.5043
O    -4.5759 0.5103 -1.5082
O    -4.6495 1.2225 0.5673
O    0.3766 2.1853 2.3510
C    -0.8138 1.8048 2.5652
O    -2.6862 -1.0728 0.2693
O    -1.9721 -1.0205 -1.8062
X    -2.2369 -2.3630 -0.3303
X    1.4551 0.7659 -0.7588
X    -2.6110 2.3736 -3.9954
X    -3.2529 4.9309 -1.0997
X    -5.9895 0.9457 -0.2110
X    -0.6946 1.9483 3.1375
   0    7 A
   0    2 S
   1    7 A
   1    2 S
   2    4 S
   2    6 S
   2    8 S
   2    9 S
   2   13 S
   2   14 S
   2   17 S
   2   18 S
   3   17 A
   3   18 A
   3   19 S
   4   11 A
   5   10 D
   6   10 S
   7   20 S
   8   16 S
   9   11 A
  10   21 S
  11   22 S
  12   13 A
  12   14 A
  12   23 S
  15   16 D
  16   24 S
