62
   54   55   56   57   58   59   60   61
Zn   0.0000 0.0000 0.0000
Zn   3.5272 -2.1522 0.3938
H    0.7733 2.2054 -4.4954
H    0.4654 2.1673 4.5610
H    0.7683 1.9608 -2.2062
H    -0.6498 -1.5217 -4.8215
H    -0.1421 -1.7558 4.7811
C    3.0352 -3.5503 4.4989
H    -0.5815 -1.6984 -2.5088
H    0.5186 1.9875 2.2679
C    3.1950 -3.4877 -3.7507
C    3.4014 -2.3697 -4.4814
C    3.4413 -2.4996 5.2754
H    -0.1837 -1.8452 2.4723
C    3.0452 -3.3942 3.1337
C    3.8691 -1.3477 4.6923
C    3.5661 -1.1811 -3.8800
C    3.8391 -1.2581 3.3095
C    3.1833 -3.3707 -2.3846
H    2.7539 -4.3576 4.8891
H    3.0618 -4.3194 -4.1672
H    2.7589 -4.1129 2.6000
C    3.5778 -1.1367 -2.5021
C    0.4504 -2.9569 0.1397
H    4.1770 -0.6304 5.2153
H    3.6693 -0.3964 -4.3873
H    4.1087 -0.4537 2.9026
H    3.0086 -4.1397 -1.8742
H    3.7109 -0.3070 -2.0785
N    0.1190 0.0714 2.1375
C    -1.8748 1.7693 0.0185
N    0.0854 0.1203 -2.1349
N    3.4082 -2.2236 -1.7437
N    3.4418 -2.2725 2.5287
O    -0.7784 2.3390 -0.0350
O    -2.0006 0.5378 0.0360
O    1.8759 0.7365 -0.0179
O    3.8433 -0.1688 0.4669
O    4.3056 -4.4912 0.4287
C    0.4920 1.3981 -4.1051
O    5.5278 -2.6900 0.3578
C    0.3322 1.3355 4.1444
O    1.6513 -2.8887 0.4117
O    -0.3161 -1.9833 -0.0731
C    0.1258 0.2175 4.8752
C    0.0859 0.3475 -4.8817
C    0.4820 1.2421 -2.7399
C    -0.3419 -0.8044 -4.2985
C    -0.0389 -0.9710 4.2737
C    -0.3119 -0.8941 -2.9158
C    0.3439 1.2185 2.7784
C    -0.0506 -1.0154 2.8959
C    3.0768 0.8047 0.2541
C    5.4020 -3.9215 0.3753
X    3.4198 -2.4180 -5.2088
X    3.4411 -2.5373 5.9966
X    0.1443 -3.6296 0.1597
X    -2.4806 2.1947 0.0250
X    0.1074 0.2659 5.6026
X    0.0860 0.3852 -5.6028
X    3.3827 1.4774 0.2340
X    6.0078 -4.3469 0.3688
   0   29 S
   0   31 S
   0   35 S
   0   36 S
   0   43 S
   1   32 S
   1   33 S
   1   37 S
   1   40 S
   1   42 S
   2   39 S
   3   41 S
   4   46 S
   5   47 S
   6   48 S
   7   12 A
   7   14 A
   7   19 S
   8   49 S
   9   50 S
  10   11 A
  10   18 A
  10   20 S
  11   16 A
  11   54 S
  12   15 A
  12   55 S
  13   51 S
  14   21 S
  14   33 A
  15   17 A
  15   24 S
  16   22 A
  16   25 S
  17   26 S
  17   33 A
  18   27 S
  18   32 A
  22   28 S
  22   32 A
  23   42 A
  23   43 A
  23   56 S
  29   50 A
  29   51 A
  30   34 D
  30   35 S
  30   57 S
  31   46 A
  31   49 A
  36   52 A
  37   52 A
  38   53 D
  39   45 A
  39   46 A
  40   53 S
  41   44 A
  41   50 A
  44   48 A
  44   58 S
  45   47 A
  45   59 S
  47   49 A
  48   51 A
  52   60 S
  53   61 S
