26
   20   21   22   23   24   25
Tm   0.0000 0.0000 0.0000
C    0.6607 -4.7652 -4.7232
Tm   0.9798 -3.0786 -2.6134
O    -0.4771 -1.0072 -2.0276
O    -0.9108 -2.1419 -3.8084
C    2.2255 -1.8199 0.3901
C    3.2835 -1.6568 -3.1822
C    -1.2457 -1.2587 -3.0035
O    -0.4759 0.7150 2.2075
O    0.9870 1.8774 1.0804
C    0.3191 1.6866 2.1098
O    -1.1530 -1.9318 0.7505
O    -2.4036 -0.2221 0.2419
O    1.8906 -0.9367 1.1949
C    -2.3037 -1.4218 0.5688
O    1.4569 -2.0714 -0.5859
O    1.4557 -3.7936 -4.8209
O    -0.0072 -4.9560 -3.6938
O    2.1328 -1.1468 -3.3639
O    3.3834 -2.8565 -2.8554
X    0.5800 -5.2448 -5.3035
X    2.8888 -2.1875 0.3708
X    3.8814 -1.2076 -3.2763
X    -1.9090 -0.8911 -2.9843
X    0.3998 2.1662 2.6901
X    -2.9016 -1.8710 0.6628
   0    3 S
   0    8 S
   0    9 S
   0   11 S
   0   12 S
   0   13 S
   0   15 S
   1   16 A
   1   17 A
   1   20 S
   2    3 S
   2    4 S
   2   15 S
   2   16 S
   2   17 S
   2   18 S
   2   19 S
   3    7 S
   4    7 D
   5   13 D
   5   15 S
   5   21 S
   6   18 A
   6   19 A
   6   22 S
   7   23 S
   8   10 A
   9   10 A
  10   24 S
  11   14 A
  12   14 A
  14   25 S
