15
   12   13   14
Mn   0.0000 0.0000 0.0000
Mn   -2.5252 1.9326 -2.1115
Cl   1.6614 -1.1505 1.1878
O    -2.3919 1.9864 0.0194
O    -0.6317 1.5132 1.2480
O    1.0085 0.7379 -1.6244
C    -1.6358 2.2001 0.9626
C    0.5799 1.6208 -2.4262
O    -0.4141 2.3478 -2.2334
C    -2.2166 -1.1164 -1.2496
O    -1.9659 -0.1558 -2.0133
O    -1.5618 -1.3581 -0.2186
X    -1.7862 2.7823 1.4196
X    0.9675 1.7137 -3.0594
X    -2.7757 -1.5822 -1.4363
   0    2 S
   0    4 S
   0    5 S
   0   11 S
   1    3 S
   1    8 S
   1   10 S
   3    6 A
   4    6 A
   5    7 A
   6   12 S
   7    8 A
   7   13 S
   9   10 A
   9   11 A
   9   14 S
