20
   16   17   18   19
C    0.0000 0.0000 0.0000
C    -0.1653 0.5138 1.2137
H    -0.1293 -3.1871 0.9412
H    -0.5892 -2.3127 2.8537
H    -0.0290 -0.0125 3.2040
H    1.6435 -1.7034 2.8502
H    1.9592 -2.5219 0.8846
H    0.5517 -1.7622 -0.9253
H    -0.1460 0.4868 -0.7802
H    -0.4304 1.3940 1.3570
C    -0.5714 -2.3301 0.7678
C    -0.8383 -1.6572 2.1690
C    0.1126 -0.4454 2.3371
C    1.5560 -0.9611 2.2168
C    1.7785 -1.5646 0.7714
C    0.4442 -1.4403 -0.0071
X    -1.2434 -2.3057 0.3760
X    -1.5169 -1.2941 2.2938
X    2.2104 -0.6064 2.4203
X    2.4443 -1.4423 0.3910
   0    1 D
   0    8 S
   0   15 S
   1    9 S
   1   12 S
   2   10 S
   3   11 S
   4   12 S
   5   13 S
   6   14 S
   7   15 S
  10   11 S
  10   15 S
  10   16 S
  11   12 S
  11   17 S
  12   13 S
  13   14 S
  13   18 S
  14   15 S
  14   19 S
