37
   33   34   35   36
C    0.0000 0.0000 0.0000
C    0.9572 -0.3927 5.7040
C    1.0240 1.9630 -0.0525
C    1.6902 3.1603 0.3846
C    -0.4290 -1.7609 1.7746
C    -0.9744 -2.9775 3.5797
C    -1.1620 -2.9032 2.2379
C    2.2184 3.4698 1.6872
C    -0.2242 -1.8199 3.9688
H    -1.2806 -3.6674 4.1567
H    -1.6837 -3.4918 1.7090
C    3.1195 4.5335 3.3874
C    -0.4075 -1.2510 0.4546
C    2.5202 3.3105 3.8726
C    -0.1574 0.5326 -1.3550
C    0.3837 1.7730 -1.3069
H    3.5593 5.1759 3.9338
H    -0.5519 0.1010 -2.1024
H    0.3406 2.4139 -2.0062
C    1.8691 1.6437 5.6996
C    0.3212 -1.5676 5.3281
H    3.2812 5.3301 1.4948
H    2.1796 1.6727 7.8064
C    2.9665 4.6364 2.0631
C    2.5741 2.8189 5.2494
C    1.8627 1.1997 7.0458
H    1.1836 -0.6057 7.7802
C    1.3108 -0.0502 7.0196
N    1.9209 2.6399 2.7537
N    0.6705 0.8650 0.7256
N    0.1315 -1.0252 2.8454
N    1.2806 0.6779 4.8823
In   1.2470 0.6914 2.8017
X    2.1090 3.4222 -0.1919
X    -0.9733 -1.4507 -0.0188
X    -0.1262 -1.8078 5.9072
X    3.1583 3.0181 5.6743
   0   12 A
   0   14 A
   0   29 A
   1   20 A
   1   27 A
   1   31 A
   2    3 A
   2   15 A
   2   29 A
   3    7 A
   3   33 S
   4    6 A
   4   12 A
   4   30 A
   5    6 A
   5    8 A
   5    9 S
   6   10 S
   7   23 A
   7   28 A
   8   20 A
   8   30 A
  11   13 A
  11   16 S
  11   23 A
  12   34 S
  13   24 A
  13   28 A
  14   15 A
  14   17 S
  15   18 S
  19   24 A
  19   25 A
  19   31 A
  20   35 S
  21   23 S
  22   25 S
  24   36 S
  25   27 A
  26   27 S
  28   32 S
  29   32 S
  30   32 S
  31   32 S
