26
   20   21   22   23   24   25
O    0.0000 0.0000 0.0000
Er   -0.0714 0.8193 -2.1460
C    -0.5846 -4.3839 1.3663
C    -1.9662 -1.6212 -3.6708
C    -2.1325 2.1596 -4.2382
O    -1.6663 -1.3808 0.4425
Er   -2.6457 -3.0437 -0.7260
O    -1.5454 -4.5846 0.5838
O    0.4914 -3.8477 1.0222
C    1.7644 1.7435 -3.9863
O    -4.4897 -4.4623 -0.0492
O    -3.8164 -2.9320 1.3684
C    -4.4815 -3.9679 1.1144
O    -2.7171 -2.2244 -2.8719
O    -3.2085 1.6233 -3.8941
O    -1.0508 -0.8435 -3.3144
O    -1.1717 2.3603 -3.4557
O    1.7726 2.2380 -2.8228
O    1.0993 0.7077 -4.2403
C    -0.7509 -0.6031 0.7989
X    -0.7723 -4.5398 2.0802
X    -2.1105 -1.6884 -4.4062
X    -1.9448 2.3154 -4.9521
X    2.2640 1.8863 -4.5383
X    -4.9811 -4.1107 1.6664
X    -0.6066 -0.5359 1.5343
   0   19 A
   0    1 S
   1   15 S
   1   16 S
   1   17 S
   1   18 S
   2    7 S
   2    8 D
   2   20 S
   3   13 A
   3   15 A
   3   21 S
   4   14 D
   4   16 S
   4   22 S
   5   19 A
   5    6 S
   6    7 S
   6   10 S
   6   11 S
   6   13 S
   9   17 A
   9   18 A
   9   23 S
  10   12 A
  11   12 A
  12   24 S
  19   25 S
