28
   22   23   24   25   26   27
Yb   0.0000 0.0000 0.0000
C    2.6064 0.0052 -1.9358
Yb   -0.9645 -3.5249 0.0000
Yb   2.5704 -2.5978 0.0000
C    -2.2722 -1.2703 -1.9358
C    1.2717 -4.8576 -1.9358
C    2.6064 0.0052 1.9358
C    -2.2722 -1.2703 1.9358
C    1.2717 -4.8576 1.9358
O    1.5396 0.4847 -1.5291
O    3.1066 -1.1018 -1.5431
O    -2.1541 -2.4339 -1.5291
O    -1.5636 -0.2836 -1.5431
O    2.2204 -4.1735 -1.5291
O    0.0629 -4.7373 -1.5431
O    1.5396 0.4847 1.5291
O    3.1066 -1.1018 1.5431
O    -2.1541 -2.4339 1.5291
O    -1.5636 -0.2836 1.5431
O    2.2204 -4.1735 1.5291
O    0.0629 -4.7373 1.5431
O    0.5353 -2.0410 0.0000
X    3.1958 0.0844 -2.4789
X    -2.7040 -0.9177 -2.4789
X    1.1138 -5.2892 -2.4789
X    3.1958 0.0844 2.4789
X    -2.7040 -0.9177 2.4789
X    1.1138 -5.2892 2.4789
   0    9 S
   0   12 S
   0   15 S
   0   18 S
   0   21 S
   1    9 A
   1   10 A
   1   22 S
   2   11 S
   2   14 S
   2   17 S
   2   20 S
   2   21 S
   3   10 S
   3   13 S
   3   16 S
   3   19 S
   3   21 S
   4   11 A
   4   12 A
   4   23 S
   5   13 A
   5   14 A
   5   24 S
   6   15 A
   6   16 A
   6   25 S
   7   17 A
   7   18 A
   7   26 S
   8   19 A
   8   20 A
   8   27 S
