51
   39   40   41   42   43   44   45   46   47   48   49   50
Pr   0.0000 0.0000 0.0000
Pr   7.9396 0.0000 0.0000
Pr   3.9698 0.0000 0.0000
O    -0.2575 0.2052 -2.5151
O    -1.7087 1.3439 -1.2881
C    5.5865 -1.9177 1.7162
O    3.3862 -2.5632 -0.1395
O    1.8538 -1.2678 -1.0263
O    -0.2575 -2.2807 1.0798
O    -1.7087 -1.7875 -0.5198
C    9.1381 -1.0427 2.4176
O    3.3862 1.1608 2.2896
O    1.8538 -0.2549 1.6111
O    -0.2575 2.0755 1.4353
O    -1.7087 0.4436 1.8080
C    2.3532 1.9177 -1.7162
C    5.5865 2.4452 0.8027
O    4.5534 -1.4024 2.1501
O    6.0858 -1.5227 0.5848
O    8.1971 -0.2052 2.5151
O    9.6483 -1.3439 1.2881
C    -1.1984 1.0427 -2.4176
C    9.1381 2.6151 -0.3058
O    4.5534 2.5632 0.1395
O    6.0858 1.2678 1.0263
O    8.1971 2.2807 -1.0798
C    5.5864 -0.5275 -2.5189
C    2.3532 -2.4452 -0.8027
O    9.6483 1.7875 0.5198
O    4.5534 -1.1608 -2.2896
O    6.0858 0.2549 -1.6111
O    8.1971 -2.0755 -1.4353
O    9.6483 -0.4436 -1.8080
C    -1.1984 -2.6151 0.3058
C    9.1380 -1.5724 -2.1119
C    2.3532 0.5275 2.5189
C    -1.1984 1.5724 2.1119
O    3.3862 1.4024 -2.1501
O    1.8538 1.5227 -0.5848
X    5.9808 -2.3647 2.1182
X    9.6401 -1.2080 2.8618
X    1.9588 2.3647 -2.1182
X    6.3157 2.9514 0.4583
X    -1.7004 1.2080 -2.8618
X    9.6377 3.1535 -0.8268
X    5.5209 -0.9393 -2.9291
X    1.6240 -2.9514 -0.4583
X    -1.6981 -3.1535 0.8268
X    8.8900 -2.1969 -2.2862
X    2.4187 0.9393 2.9291
X    -0.9504 2.1969 2.2862
   0    3 S
   0    4 S
   0    7 S
   0    8 S
   0    9 S
   0   12 S
   0   13 S
   0   14 S
   0   38 S
   1   18 S
   1   19 S
   1   20 S
   1   24 S
   1   25 S
   1   28 S
   1   30 S
   1   31 S
   1   32 S
   2    6 S
   2    7 S
   2   11 S
   2   12 S
   2   17 S
   2   18 S
   2   23 S
   2   24 S
   2   29 S
   2   30 S
   2   37 S
   2   38 S
   3   21 A
   4   21 A
   5   17 D
   5   18 S
   5   39 S
   6   27 D
   7   27 S
   8   33 A
   9   33 A
  10   19 A
  10   20 A
  10   40 S
  11   35 D
  12   35 S
  13   36 A
  14   36 A
  15   37 D
  15   38 S
  15   41 S
  16   23 D
  16   24 S
  16   42 S
  21   43 S
  22   25 A
  22   28 A
  22   44 S
  26   29 D
  26   30 S
  26   45 S
  27   46 S
  31   34 A
  32   34 A
  33   47 S
  34   48 S
  35   49 S
  36   50 S
