75
   72   73   74
C    0.0000 0.0000 0.0000
C    -0.1444 -1.4304 0.5529
C    0.1491 -1.7078 2.0384
C    0.0134 -3.1341 2.6059
C    0.3130 -3.4018 4.0933
C    0.7493 -2.2436 5.0076
C    0.8804 -0.8183 4.4413
C    0.5815 -0.5509 2.9563
C    0.6555 -3.8875 6.9008
C    0.8517 -3.8398 8.4212
C    2.2386 -4.1153 9.0230
C    2.4881 -3.8118 10.5097
C    1.3193 -3.3938 11.4222
C    -0.0965 -3.2433 10.8371
C    -0.3295 -3.4644 9.3338
C    -1.7205 -3.2055 8.7263
C    3.3966 -4.5833 8.1182
C    1.5803 -3.0812 12.9071
C    3.9074 -3.9069 11.0864
C    5.6967 -2.4754 11.9799
C    6.4055 -3.8039 12.2957
C    7.7319 -3.7990 13.0765
C    8.3466 -2.4656 13.5398
C    7.6421 -1.1356 13.2135
C    6.3156 -1.1408 12.4329
C    9.6662 -2.4668 14.3316
C    10.3611 -3.8013 14.6588
C    -1.2653 -2.7968 11.7316
C    -3.0295 -3.7262 13.1590
C    -3.4733 -2.2688 13.3766
C    -4.8498 -1.9717 13.9973
C    -5.7794 -3.1333 14.3946
C    -5.3322 -4.5902 14.1793
C    -3.9557 -4.8871 13.5610
C    -7.1615 -2.8427 15.0031
C    -8.0870 -4.0117 15.3856
O    1.0298 -2.4925 6.4662
O    -1.7122 -4.0184 12.4918
O    4.3772 -2.4838 11.2546
H    0.3222 0.8472 0.6917
H    -0.4661 -2.2804 -0.1354
H    -0.3076 -3.9905 1.9263
H    0.2116 -4.4557 4.5167
H    1.1985 0.0383 5.1225
H    0.6806 0.5034 2.5354
H    1.3433 -4.6604 6.4219
H    -0.4353 -4.1065 6.6515
H    -2.3807 -2.6919 9.5006
H    -2.1954 -4.1947 8.4163
H    -1.6110 -2.5329 7.8123
H    3.1622 -4.3226 7.0331
H    3.5147 -5.7136 8.2169
H    4.3667 -4.0754 8.4334
H    0.6152 -2.7226 13.3969
H    2.3727 -2.2652 12.9821
H    1.9529 -4.0199 13.4363
H    3.8786 -4.4315 12.0982
H    4.5945 -4.4686 10.3707
H    5.9454 -4.7906 11.9567
H    8.2573 -4.7820 13.3144
H    8.1004 -0.1483 13.5525
H    5.7886 -0.1577 12.1948
H    10.1270 -1.4825 14.6764
H    9.8981 -4.7837 14.3123
H    -0.9411 -1.9774 12.4547
H    -2.1185 -2.4201 11.0752
H    -2.7872 -1.4119 13.0704
H    -5.1831 -0.8934 14.1577
H    -6.0229 -5.4481 14.4741
H    -3.6260 -5.9645 13.3925
H    -7.4998 -1.7665 15.1679
H    -7.7449 -5.0863 15.2186
X    -0.2050 0.2024 -1.0511
X    11.2944 -3.8067 15.2213
X    -9.0683 -3.8120 15.8153
   0    1 D
   0   39 S
   0   72 S
   1    2 S
   1   40 S
   2    3 A
   2    7 A
   3    4 A
   3   41 S
   4    5 A
   4   42 S
   5    6 A
   5   36 S
   6    7 A
   6   43 S
   7   44 S
   8    9 S
   8   36 S
   8   45 S
   8   46 S
   9   10 A
   9   14 A
  10   11 A
  10   16 S
  11   12 A
  11   18 S
  12   13 A
  12   17 S
  13   14 A
  13   27 S
  14   15 S
  15   47 S
  15   48 S
  15   49 S
  16   50 S
  16   51 S
  16   52 S
  17   53 S
  17   54 S
  17   55 S
  18   38 S
  18   56 S
  18   57 S
  19   20 A
  19   24 A
  19   38 S
  20   21 A
  20   58 S
  21   22 A
  21   59 S
  22   23 A
  22   25 S
  23   24 A
  23   60 S
  24   61 S
  25   26 D
  25   62 S
  26   63 S
  26   73 S
  27   37 S
  27   64 S
  27   65 S
  28   29 A
  28   33 A
  28   37 S
  29   30 A
  29   66 S
  30   31 A
  30   67 S
  31   32 A
  31   34 S
  32   33 A
  32   68 S
  33   69 S
  34   35 D
  34   70 S
  35   71 S
  35   74 S
  74   35 S
