38
   34   35   36   37
Mn   0.0000 0.0000 0.0000
C    3.0362 2.9291 -0.4913
C    2.3881 1.6903 -0.7983
C    -3.0362 -2.9291 0.4913
C    -2.3881 -1.6903 0.7983
C    -2.8511 -0.7881 1.7520
C    -2.2290 0.4215 2.0148
C    2.2290 -0.4215 -2.0148
C    2.6960 -1.3717 -2.9968
C    -2.6960 1.3717 2.9968
C    2.8511 0.7881 -1.7520
H    1.8836 -3.1674 -3.5310
N    1.0835 -0.9044 -1.4296
N    1.2906 1.5462 0.0000
H    2.5331 4.3233 0.8996
Cl   1.3351 -1.1144 1.7265
H    3.8010 3.2650 -0.8996
H    3.4531 -1.2872 -3.5310
C    0.2659 2.9460 1.7520
C    -0.8130 2.1178 2.0148
C    -1.8314 2.4075 2.9968
C    -0.2659 -2.9460 -1.7520
C    0.8130 -2.1178 -2.0148
C    1.8314 -2.4075 -2.9968
H    -2.5331 -4.3233 -0.8996
H    -3.8010 -3.2650 0.8996
H    -3.4531 1.2872 3.5310
N    -1.0835 0.9044 1.4296
N    -1.2906 -1.5462 0.0000
H    -1.8836 3.1674 3.5310
C    2.3393 3.5108 0.4913
C    1.2363 2.6518 0.7983
C    -2.3393 -3.5108 -0.4913
C    -1.2363 -2.6518 -0.7983
X    -3.7291 -1.0750 1.5779
X    3.7294 1.0750 -1.5779
X    0.2098 3.3211 2.3197
X    -0.2094 -3.3207 -2.3197
   0   12 S
   0   13 S
   0   15 S
   0   27 S
   0   28 S
   1    2 A
   1   16 S
   1   30 A
   2   10 A
   2   13 A
   3    4 A
   3   25 S
   3   32 A
   4    5 A
   4   28 A
   5    6 A
   5   34 S
   6    9 A
   6   27 A
   7    8 A
   7   10 A
   7   12 A
   8   17 S
   8   23 A
   9   20 A
   9   26 S
  10   35 S
  11   23 S
  12   22 A
  13   31 A
  14   30 S
  18   19 A
  18   31 A
  18   36 S
  19   20 A
  19   27 A
  20   29 S
  21   22 A
  21   33 A
  21   37 S
  22   23 A
  24   32 S
  28   33 A
  30   31 A
  32   33 A
