54
   46   47   48   49   50   51   52   53
Ni   0.0000 0.0000 0.0000
Ni   3.6000 1.7315 2.0121
H    -2.1407 2.3896 0.2635
H    1.3646 2.6189 -1.4503
H    0.4284 4.8789 -1.4414
H    1.8288 -2.4700 -0.5736
H    -0.8061 -2.3155 2.2854
H    0.3402 -4.4644 2.4988
H    5.7407 -0.6581 1.7486
H    2.2353 -0.8873 3.4625
H    3.1716 -3.1474 3.4535
H    1.7711 4.2015 2.5857
H    4.4060 4.0471 -0.2732
H    3.2597 6.1959 -0.4867
C    -1.3822 2.7194 -0.1608
C    0.5354 2.8550 -1.1027
C    0.0284 4.1116 -1.1001
C    1.3134 -2.6948 0.1677
C    -0.1241 -2.6177 1.7294
C    0.5058 -3.8100 1.8585
C    2.8796 0.2707 -0.7346
C    -2.2376 -0.5884 -0.9071
C    4.9822 -0.9878 2.1729
C    3.0646 -1.1235 3.1148
C    3.5715 -2.3801 3.1123
C    2.2866 4.4264 1.8445
C    3.7241 4.3492 0.2827
C    3.0941 5.5415 0.1536
C    0.7203 1.4608 2.7468
C    5.8375 2.3199 2.9193
N    -0.3494 1.9812 -0.5186
N    -1.1983 4.0188 -0.4918
N    0.3845 -1.9217 0.6699
N    1.4395 -3.8582 0.8463
N    3.9494 -0.2497 2.5308
N    4.7983 -2.2873 2.5039
N    3.2155 3.6532 1.3422
N    2.1605 5.5897 1.1658
O    1.7255 -0.1242 -1.0886
O    3.1064 1.1639 0.0974
O    -2.1387 -0.1862 0.2840
O    -1.2091 -0.7975 -1.6152
O    1.8744 1.8557 3.1008
O    0.4936 0.5676 1.9148
O    5.7387 1.9177 1.7282
O    4.8091 2.5290 3.6273
X    3.6939 0.2145 -0.6895
X    -2.7836 -0.9311 -1.4199
X    -0.0940 1.5170 2.7016
X    6.3836 2.6626 3.4320
X    -1.8749 4.3089 -0.6368
X    2.1226 -4.1277 0.9966
X    5.4749 -2.5773 2.6490
X    1.4773 5.8592 1.0155
   0   30 S
   0   32 S
   0   38 S
   0   40 S
   0   41 S
   0   43 S
   1   34 S
   1   36 S
   1   39 S
   1   42 S
   1   44 S
   1   45 S
   2   14 S
   3   15 S
   4   16 S
   5   17 S
   6   18 S
   7   19 S
   8   22 S
   9   23 S
  10   24 S
  11   25 S
  12   26 S
  13   27 S
  14   30 A
  14   31 A
  15   16 A
  15   30 A
  16   31 A
  17   32 A
  17   33 A
  18   19 A
  18   32 A
  19   33 A
  20   38 A
  20   39 A
  20   46 S
  21   40 A
  21   41 A
  21   47 S
  22   34 A
  22   35 A
  23   24 A
  23   34 A
  24   35 A
  25   36 A
  25   37 A
  26   27 A
  26   36 A
  27   37 A
  28   42 A
  28   43 A
  28   48 S
  29   44 A
  29   45 A
  29   49 S
  31   50 S
  33   51 S
  35   52 S
  37   53 S
