18
   14   15   16   17
C    0.0000 0.0000 0.0000
C    -0.8664 -0.6654 0.8442
C    -0.6605 -0.6471 2.2311
C    0.3892 0.0379 2.7718
C    1.4344 0.5449 1.9170
C    1.2299 0.5255 0.5112
C    2.2638 1.0506 -0.3441
C    3.3009 1.7475 0.2122
C    3.5084 1.7513 1.5963
C    2.6656 1.0704 2.4342
H    -1.5902 -1.1298 0.4908
H    -1.2459 -1.1065 2.7885
H    3.8781 2.2273 -0.3380
H    4.2277 2.2207 1.9510
X    -0.2566 0.1926 -0.6800
X    0.3283 0.2550 3.4905
X    2.3215 0.8487 -1.0692
X    2.9199 0.8851 3.1199
   0    1 A
   0    5 A
   0   14 S
   1    2 A
   1   10 S
   2    3 A
   2   11 S
   3    4 A
   3   15 S
   4    5 A
   4    9 A
   5    6 A
   6    7 A
   6   16 S
   7    8 A
   7   12 S
   8    9 A
   8   13 S
   9   17 S
