75
   67   68   69   70   71   72   73   74
Cl   0.0000 0.0000 0.0000
Cl   5.1155 -0.5777 -5.0649
Cd   1.5984 1.7946 -0.9925
Cd   1.7578 -0.8147 1.7543
Cl   3.4109 3.3173 -2.0430
H    7.2131 -6.0163 -1.6333
H    8.0413 -4.1299 -2.6236
H    4.4531 -2.8912 -3.6094
Cd   7.0391 -1.1685 -3.4054
Cd   4.2138 1.4832 -3.7613
H    5.3168 6.2491 -5.4835
H    4.1736 3.7398 -8.5609
H    -0.0259 6.7332 -1.1026
C    -1.5509 5.6262 -1.9109
C    -0.3263 5.8469 -1.2647
H    1.2550 4.9393 -0.3966
C    -1.0439 3.2700 -1.6977
C    0.4435 4.7684 -0.8628
H    -1.2963 2.3730 -1.8731
H    3.8836 2.0811 -6.9622
H    4.8036 4.4552 -4.0491
C    -1.9389 4.3057 -2.1063
C    4.6450 -1.4675 -0.3721
H    -2.7775 4.0993 -2.5015
H    -0.3158 0.3869 6.4777
H    -3.1593 -0.5350 3.7134
H    -1.4528 -0.9550 2.1769
H    1.2988 -0.3001 4.8924
C    -1.8826 -0.0082 5.2166
C    -0.5662 0.0844 5.6118
C    -2.2476 -0.4353 3.9598
C    2.7279 3.3127 2.9473
C    -1.2233 -0.7165 3.0672
C    0.3809 -0.3001 4.6481
C    8.0789 2.9105 -2.3794
N    4.2549 0.0594 -1.7732
N    3.2640 0.0666 -0.9228
N    3.4726 -0.8713 -0.0258
C    0.1410 0.3905 -4.9062
N    5.1332 -0.9169 -1.4379
C    5.2459 -5.6070 -2.0063
C    4.4364 -4.6424 -2.6414
C    6.6186 -5.3863 -2.0219
C    7.0984 -4.2545 -2.6036
C    5.0080 -3.5355 -3.1854
C    4.6930 5.2134 -7.2220
C    4.9747 5.4269 -5.8165
C    4.3113 3.9320 -7.6394
C    4.1444 2.9496 -6.6758
C    4.7014 4.3271 -4.9839
N    0.0910 3.4728 -1.1049
N    2.2752 2.2911 1.1466
N    2.3795 1.4405 2.1169
N    2.5964 2.0562 3.3093
N    2.5255 3.5405 1.6395
N    7.3299 0.9884 -2.9544
N    6.4120 1.9210 -3.1920
N    8.4627 1.6362 -2.3949
N    6.8480 3.1418 -2.8412
N    2.0207 0.9422 -4.0846
N    1.0944 1.0916 -3.1521
N    -0.0989 0.7642 -3.6539
N    1.4386 0.4688 -5.2348
N    0.0513 -0.6738 3.3892
N    6.3453 -3.3219 -3.1365
H    3.4956 -4.7670 -2.6858
N    4.3217 3.1454 -5.3924
X    -1.9514 6.1690 -2.1451
X    4.9455 -2.0174 -0.0169
X    -2.4145 0.1911 5.7062
X    2.8301 3.8608 3.4136
X    8.4794 3.4533 -2.1451
X    -0.3909 0.1911 -5.3957
X    4.9455 -6.1569 -1.6511
X    4.7952 5.7615 -7.6883
   0    2 S
   0    3 S
   1    8 S
   1    9 S
   2    4 S
   2   36 S
   2   50 S
   2   51 S
   2   60 S
   3   37 S
   3   52 S
   3   63 S
   4    9 S
   5   42 S
   6   43 S
   7   44 S
   8   55 S
   8   64 S
   9   35 S
   9   56 S
   9   59 S
   9   66 S
  10   46 S
  11   47 S
  12   14 S
  13   14 A
  13   21 A
  13   67 S
  14   17 A
  15   17 S
  16   18 S
  16   21 A
  16   50 A
  17   50 A
  19   48 S
  20   49 S
  21   23 S
  22   37 A
  22   39 A
  22   68 S
  24   29 S
  25   30 S
  26   32 S
  27   33 S
  28   29 A
  28   30 A
  28   69 S
  29   33 A
  30   32 A
  31   53 A
  31   54 A
  31   70 S
  32   63 A
  33   63 A
  34   57 A
  34   58 A
  34   71 S
  35   36 A
  35   39 A
  36   37 A
  38   61 A
  38   62 A
  38   72 S
  40   41 A
  40   42 A
  40   73 S
  41   44 A
  41   65 S
  42   43 A
  43   64 A
  44   64 A
  45   46 A
  45   47 A
  45   74 S
  46   49 A
  47   48 A
  48   66 A
  49   66 A
  51   52 A
  51   54 A
  52   53 A
  55   56 A
  55   57 A
  56   58 A
  59   60 A
  59   62 A
  60   61 A
