90
   84   85   86   87   88   89
C    0.0000 0.0000 0.0000
H    -0.5475 -0.9234 1.6889
C    -3.6874 -0.1619 1.8683
C    -4.5674 -0.8484 1.0305
H    -3.5439 0.7676 1.7366
C    -5.0143 -2.5014 9.1297
C    -4.0773 -2.8886 2.2233
C    0.2625 4.5820 8.6335
C    0.6812 4.7147 7.2881
C    0.3009 3.7286 6.3816
C    -0.4270 2.5991 6.7442
C    -0.9224 1.6292 5.7595
C    -0.6681 1.7507 4.3874
C    -1.2419 0.9365 3.4351
C    -2.1611 -0.0575 3.8492
C    -2.3579 -0.2373 5.1965
C    -1.7554 0.5537 6.1832
C    -2.0472 0.3534 7.6068
C    -2.7846 -0.7442 8.0686
C    -3.1148 -0.9197 9.3988
C    -2.6828 0.0456 10.3415
C    -1.8921 1.0952 9.8911
C    -1.5505 1.2794 8.5400
H    0.5518 3.8310 5.4713
C    -0.4038 3.4400 9.0037
H    -2.9348 -0.9365 5.4751
C    0.3440 5.6465 9.6679
C    -0.1807 7.9038 10.3950
C    0.2371 7.5743 11.6793
H    -0.4065 7.1598 8.5286
C    -0.7624 2.4216 8.1125
H    -0.0692 2.4283 4.0973
C    -0.1229 6.9384 9.4064
H    -0.6363 3.3338 9.9198
C    0.7753 5.3527 10.9427
C    0.7323 6.3185 11.9579
C    1.4704 5.9132 6.8396
C    2.5840 6.3224 7.5973
C    3.2697 7.4636 7.2309
H    1.1071 4.4851 11.1373
C    1.8671 7.7515 5.3225
C    1.1468 6.6201 5.7042
H    2.8598 5.8172 8.3530
H    0.4168 6.3311 5.1698
H    -0.2009 3.2298 -0.3244
H    0.2502 -0.7916 -0.4599
H    4.0097 7.7519 7.7499
H    1.6488 8.2125 4.5210
C    -0.7931 1.0695 2.0133
C    -4.7383 -2.2000 1.2233
H    -3.0695 -1.3949 7.4408
H    -5.0363 -0.3938 0.3416
H    -4.1971 -3.8244 2.3263
C    -0.4556 -0.0705 1.2805
H    1.0416 6.1087 12.8320
C    -3.0235 -0.8165 2.8912
C    -5.3712 -4.2997 10.6583
H    -5.2825 -2.0217 8.3549
C    2.8913 8.1861 6.1183
H    -3.9173 -4.4952 12.0667
H    -2.6585 -2.6602 11.3701
C    -3.2317 -2.1876 3.0801
C    -3.8710 -2.1238 9.8148
C    -3.1123 0.0861 11.7747
C    -4.4571 -0.0897 12.1297
C    -3.4580 -2.8902 10.9083
C    -2.6007 0.5540 14.0877
C    -2.2080 0.4080 12.7671
H    -5.0956 -0.3067 11.4617
H    -1.2954 0.5335 12.5381
C    -4.8546 0.0505 13.4236
C    -3.9407 0.3948 14.4236
H    -1.5656 1.7193 10.5285
H    -1.9607 0.7587 14.7575
H    -5.7674 -0.0883 13.6507
C    -5.7705 -3.5832 9.5763
C    -4.2038 -3.9747 11.3262
H    -6.5689 -3.8225 9.1202
C    -0.6775 2.2646 1.3721
H    -2.7955 -2.6393 3.7920
C    -0.2562 2.3767 0.0897
H    -0.5020 8.7765 10.1984
C    0.1004 1.2128 -0.6240
H    -0.9025 3.0569 1.8473
X    -0.0680 7.8847 12.3907
X    -5.1411 -2.6616 0.5235
X    -5.6805 -5.1889 10.6766
X    3.1281 9.0841 6.2253
X    -4.2508 0.1750 15.1816
X    0.4093 1.6782 -1.2977
   0   45 S
   0   53 A
   0   82 A
   1   53 S
   2    3 A
   2    4 S
   2   55 A
   3   49 A
   3   51 S
   5   57 S
   5   62 A
   5   75 A
   6   49 A
   6   52 S
   6   61 A
   7    8 A
   7   24 A
   7   26 S
   8    9 A
   8   36 S
   9   10 A
   9   23 S
  10   11 A
  10   30 A
  11   12 A
  11   16 A
  12   13 A
  12   31 S
  13   14 A
  13   48 S
  14   15 A
  14   55 S
  15   16 A
  15   25 S
  16   17 A
  17   18 A
  17   22 A
  18   19 A
  18   50 S
  19   20 A
  19   62 S
  20   21 A
  20   63 S
  21   22 A
  21   72 S
  22   30 A
  24   30 A
  24   33 S
  26   32 A
  26   34 A
  27   28 A
  27   32 A
  27   81 S
  28   35 A
  28   84 S
  29   32 S
  34   35 A
  34   39 S
  35   54 S
  36   37 A
  36   41 A
  37   38 A
  37   42 S
  38   46 S
  38   58 A
  40   41 A
  40   47 S
  40   58 A
  41   43 S
  44   80 S
  48   53 A
  48   78 A
  49   85 S
  55   61 A
  56   75 A
  56   76 A
  56   86 S
  58   87 S
  59   76 S
  60   65 S
  61   79 S
  62   65 A
  63   64 A
  63   67 A
  64   68 S
  64   70 A
  65   76 A
  66   67 A
  66   71 A
  66   73 S
  67   69 S
  70   71 A
  70   74 S
  71   88 S
  75   77 S
  78   80 A
  78   83 S
  80   82 A
  82   89 S
