31
   25   26   27   28   29   30
Cd   0.0000 0.0000 0.0000
Cd   -4.8042 5.4687 0.6701
Cd   -2.4021 2.7343 0.3350
C    -7.2154 6.5823 0.2916
C    -1.8341 6.0384 0.5404
C    -0.7324 1.3225 2.8290
Cl   -0.1154 2.4210 -0.8240
Cl   -4.6888 3.0477 1.4940
O    -1.8642 -1.1396 0.3015
O    -3.1380 0.6189 -0.2106
O    1.4121 -1.8600 0.5260
O    2.3179 0.1128 0.0732
C    2.4112 -1.1136 0.3784
C    -2.9701 -0.5697 0.1296
O    -4.7165 5.0359 -1.5774
O    -3.2199 3.3758 -1.6436
O    -0.2318 -0.5870 -2.2862
O    -2.9400 6.6083 0.3686
O    -1.6662 4.8498 0.8807
O    -6.2163 7.3287 0.1441
O    -7.1221 5.3559 0.5969
C    -4.0718 4.1462 -2.1589
O    -0.0877 0.4328 2.2474
O    -1.5843 2.0929 2.3137
O    -4.5724 6.0557 2.9563
X    -7.9041 6.8701 0.2106
X    -1.2252 6.4680 0.4189
X    -0.5841 1.4396 3.5609
X    3.0999 -1.4015 0.4594
X    -3.5790 -0.9993 0.2511
X    -4.2201 4.0290 -2.8909
   0    6 S
   0    8 S
   0   10 S
   0   11 S
   0   16 S
   0   22 S
   1    7 S
   1   14 S
   1   17 S
   1   19 S
   1   20 S
   1   24 S
   2    6 S
   2    7 S
   2    9 S
   2   15 S
   2   18 S
   2   23 S
   3   19 A
   3   20 A
   3   25 S
   4   17 A
   4   18 A
   4   26 S
   5   22 A
   5   23 A
   5   27 S
   8   13 A
   9   13 A
  10   12 A
  11   12 A
  12   28 S
  13   29 S
  14   21 A
  15   21 A
  21   30 S
  25    3 S
  28   12 S
