29
   23   24   25   26   27   28
C    0.0000 0.0000 0.0000
C    0.4016 0.1782 -5.2104
C    -3.4228 -2.8933 -3.7347
C    3.4894 -2.2486 -2.5815
C    -0.1238 -4.9853 -0.2606
C    0.4215 -4.9319 -5.1114
Zn   -0.8882 -2.3518 -4.4081
Zn   1.0613 -3.8719 -2.5067
Zn   -1.4511 -2.2882 -1.2440
Zn   1.0211 -0.7549 -2.5062
O    0.7855 0.3339 -0.9208
O    0.8577 0.2345 -4.0521
O    -0.2834 -0.7679 -5.5804
O    -0.5840 -1.0638 0.1462
O    -0.0697 -2.3330 -2.6603
O    -2.7902 -2.2960 -4.6175
O    2.9260 -1.1832 -2.4750
O    2.8373 -3.3248 -2.6165
O    -0.9772 -4.0681 -0.2697
O    0.8212 -5.1034 -1.0190
O    -0.1926 -3.8717 -5.4508
O    0.8537 -5.1724 -3.9573
O    -2.8337 -3.5550 -2.8843
X    -0.0204 0.5132 0.5220
X    0.4606 0.7622 -5.6819
X    -4.1751 -2.8763 -3.6261
X    4.2332 -2.2831 -2.7064
X    -0.1709 -5.5373 0.2352
X    0.4810 -5.4521 -5.6270
   0   10 A
   0   13 A
   0   23 S
   1   11 A
   1   12 A
   1   24 S
   2   15 S
   2   22 D
   2   25 S
   3   16 A
   3   17 A
   3   26 S
   4   18 A
   4   19 A
   4   27 S
   5   20 A
   5   21 A
   5   28 S
   6   12 S
   6   14 S
   6   15 S
   6   20 S
   7   14 S
   7   17 S
   7   19 S
   7   21 S
   8   13 S
   8   14 S
   8   18 S
   9   10 S
   9   11 S
   9   14 S
   9   16 S
