26
   20   21   22   23   24   25
Cd   0.0000 0.0000 0.0000
O    -3.8243 3.2102 -2.4471
O    -4.7676 1.3248 -1.8241
O    0.1491 1.7520 -1.5681
O    -0.9105 2.7525 -3.2073
O    -2.0292 2.9528 0.2688
O    -0.2986 1.8511 1.2386
O    2.4477 0.3929 0.2567
O    -2.4690 -0.0342 0.0006
O    -1.4094 -1.0348 1.6398
O    -0.2908 -1.2350 -1.8362
O    1.5043 -1.4925 0.8797
C    0.1375 2.3876 -2.6589
C    -1.1180 2.7753 1.1458
O    -2.0214 -0.1333 -2.8060
C    2.4918 -0.6937 0.8152
Cd   -2.3200 1.7178 -1.5674
C    -2.4575 -0.6698 1.0914
C    -4.8117 2.4115 -2.3826
C    -1.2020 -1.0576 -2.7133
X    0.8217 2.6690 -2.7829
X    -1.1497 3.3004 1.6773
X    3.1108 -0.8663 1.2852
X    -3.1416 -0.9512 1.2154
X    -5.4308 2.5841 -2.8526
X    -1.1702 -1.5827 -3.2448
   0    3 S
   0    6 S
   0    7 S
   0    8 S
   0    9 S
   0   10 S
   0   11 S
   1   16 S
   1   18 A
   2   16 S
   2   18 A
   3   12 S
   3   16 S
   4   12 D
   4   16 S
   5   13 A
   5   16 S
   6   13 A
   7   15 A
   8   16 S
   8   17 S
   9   17 D
  10   19 A
  11   15 A
  12   20 S
  13   21 S
  14   16 S
  14   19 A
  15   22 S
  17   23 S
  18   24 S
  19   25 S
