54
   48   49   50   51   52   53
C    0.0000 0.0000 0.0000
C    -0.6863 -0.1829 -1.3722
C    -0.4370 0.8789 -2.2272
H    1.9681 -2.1523 5.1560
H    1.6278 0.3268 1.9733
H    -0.7186 -3.0193 2.2224
H    -0.3960 0.7637 0.4933
H    0.9708 0.1609 -0.1126
H    0.0880 1.6290 -1.9661
O    -0.2229 -1.1549 0.6418
H    2.0326 6.4942 -6.9138
H    -0.2845 3.1785 -6.7438
H    1.4401 4.6484 -3.3336
H    -1.6748 2.2945 -4.8040
H    -0.4693 1.4292 -5.4338
H    -2.1822 -0.3082 -4.7872
O    0.0733 2.7043 -4.0903
C    0.5250 3.7339 -4.9573
C    1.3140 4.6670 -4.2724
C    1.8947 5.6221 -5.0914
C    0.2522 3.8338 -6.3199
C    -0.8154 1.8424 -4.6028
C    -1.0002 0.7773 -3.4988
C    -1.7950 -0.2777 -3.9179
C    0.7714 4.9058 -7.0671
C    1.6296 5.7843 -6.4286
C    -4.7369 -4.4418 -7.1030
C    -5.0099 -5.6530 -6.5173
C    -4.6782 -5.8608 -5.1896
C    -4.0095 -4.8279 -4.5094
C    -3.7866 -3.6052 -5.1393
C    -4.2001 -3.3428 -6.4516
C    -2.8187 -2.5689 -3.2713
C    -1.9886 -1.2971 -2.9863
C    -1.4724 -1.2870 -1.7003
H    -5.4232 -6.3451 -7.0192
H    -3.7103 -4.9633 -3.6210
H    -4.1209 -2.4910 -6.8588
H    -3.6399 -2.5858 -2.7157
H    -2.2878 -3.3834 -3.0821
H    -1.6396 -1.9897 -1.0801
C    0.6629 -2.7467 3.7263
C    1.5753 -1.9137 4.3250
C    1.9211 -0.7231 3.7096
C    1.3609 -0.4471 2.4499
C    0.4136 -1.3090 1.9015
C    -0.0205 -2.4707 2.5529
O    -3.1208 -2.4859 -4.5741
X    1.9374 5.9673 -4.5849
X    0.9167 5.3251 -7.6225
X    -4.6942 -4.0204 -7.6656
X    -4.5332 -6.5769 -5.0818
X    0.7054 -3.4862 3.7994
X    2.0663 -0.3343 4.2144
   0    1 S
   0    6 S
   0    7 S
   0    9 S
   1    2 A
   1   34 A
   2    8 S
   2   22 A
   3   42 S
   4   44 S
   5   46 S
   9   45 S
  10   25 S
  11   20 S
  12   18 S
  13   21 S
  14   21 S
  15   23 S
  16   17 S
  16   21 S
  17   18 A
  17   20 A
  18   19 A
  19   25 A
  19   48 S
  20   24 A
  21   22 S
  22   23 A
  23   33 A
  24   25 A
  24   49 S
  26   27 A
  26   31 A
  26   50 S
  27   28 A
  27   35 S
  28   29 A
  28   51 S
  29   30 A
  29   36 S
  30   31 A
  30   47 S
  31   37 S
  32   33 S
  32   38 S
  32   39 S
  32   47 S
  33   34 A
  34   40 S
  41   42 A
  41   46 A
  41   52 S
  42   43 A
  43   44 A
  43   53 S
  44   45 A
  45   46 A
