66
   62   63   64   65
C    0.0000 0.0000 0.0000
C    -0.0097 -0.0015 2.5201
C    0.0005 1.3984 -0.0178
C    0.0052 1.3969 2.5379
C    -0.0739 2.0254 -1.3402
C    -0.0821 2.0239 3.8570
C    -0.1294 -0.7350 1.2592
C    -0.0431 2.0832 1.2608
H    0.3572 7.3300 1.2592
H    0.1706 4.1162 -2.2352
H    0.2007 4.1162 4.7504
H    -2.1901 7.6785 -3.5689
H    -2.0380 6.8979 -1.2123
H    1.9045 5.6790 -2.0264
H    1.8732 7.0607 -4.0852
H    -2.2266 7.7302 6.0501
H    -2.0706 6.8476 3.7307
H    1.9282 5.8038 4.5303
H    1.8814 7.2874 6.5195
H    -0.3122 -1.8093 1.2592
H    -0.1255 1.4045 -2.2352
H    -0.1556 1.4045 4.7504
H    2.2352 -2.1578 -3.5689
H    2.0831 -1.3771 -1.2123
H    -1.8594 -0.1583 -2.0264
H    -1.8281 -1.5400 -4.0852
H    2.2717 -2.2095 6.0501
H    2.1157 -1.3269 3.7307
H    -1.8831 -0.2830 4.5303
H    -1.8364 -1.7667 6.5195
C    -0.1208 7.6207 -3.8554
C    -0.1592 7.6922 6.3512
C    -1.2200 7.4152 -3.1464
C    -1.2543 7.4578 5.6422
C    -1.1541 6.8613 -1.8484
C    -1.1803 6.8568 4.3620
C    -0.0103 6.2800 -1.3644
C    -0.0250 6.2877 3.8877
C    1.0189 6.2709 -2.2546
C    1.0204 6.3622 4.7537
C    0.9786 7.0028 -3.4637
C    0.9707 7.1398 5.9384
C    0.0451 5.5207 0.0000
C    0.0547 5.5222 2.5201
C    0.0446 4.1223 -0.0178
C    0.0399 4.1238 2.5379
C    0.1190 3.4953 -1.3402
C    0.1272 3.4969 3.8570
C    0.1745 6.2557 1.2592
C    0.0882 3.4375 1.2608
C    0.1659 -2.0999 -3.8554
C    0.2042 -2.1715 6.3512
C    1.2651 -1.8945 -3.1464
C    1.2994 -1.9371 5.6422
C    1.1992 -1.3406 -1.8484
C    1.2254 -1.3360 4.3620
C    0.0554 -0.7593 -1.3644
C    0.0701 -0.7669 3.8877
C    -0.9739 -0.7502 -2.2546
C    -0.9753 -0.8415 4.7537
C    -0.9335 -1.4821 -3.4637
C    -0.9256 -1.6191 5.9384
X    0.0332 8.1163 -4.3555
X    -0.0410 8.1618 6.8885
X    0.0119 -2.5956 -4.3555
X    0.0861 -2.6411 6.8885
   0    2 A
   0    6 A
   0   56 S
   1    3 A
   1    6 A
   1   57 S
   2    4 A
   2    7 A
   3    5 A
   3    7 A
   4   20 S
   4   46 A
   5   21 S
   5   47 A
   6   19 S
   7   49 A
   8   48 S
   9   46 S
  10   47 S
  11   32 S
  12   34 S
  13   38 S
  14   40 S
  15   33 S
  16   35 S
  17   39 S
  18   41 S
  22   52 S
  23   54 S
  24   58 S
  25   60 S
  26   53 S
  27   55 S
  28   59 S
  29   61 S
  30   32 A
  30   40 A
  30   62 S
  31   33 A
  31   41 A
  31   63 S
  32   34 A
  33   35 A
  34   36 A
  35   37 A
  36   38 A
  36   42 S
  37   39 A
  37   43 S
  38   40 A
  39   41 A
  42   44 A
  42   48 A
  43   45 A
  43   48 A
  44   46 A
  44   49 A
  45   47 A
  45   49 A
  50   52 A
  50   60 A
  50   64 S
  51   53 A
  51   61 A
  51   65 S
  52   54 A
  53   55 A
  54   56 A
  55   57 A
  56   58 A
  57   59 A
  58   60 A
  59   61 A
