85
   73   74   75   76   77   78   79   80   81   82   83   84
C    0.0000 0.0000 0.0000
Cu   -2.4111 2.6158 7.6088
Cu   0.0641 1.6049 5.4852
Cu   -5.0217 2.3769 10.0451
N    -5.0764 -0.0262 5.4613
N    -4.1331 -0.2725 4.4824
N    -2.5518 -1.6676 6.6912
N    -3.5689 -1.2496 7.5276
N    -6.1436 -0.4782 3.6214
C    -5.9413 3.1450 7.3887
Cu   -1.9782 -0.4477 5.1577
Cu   -4.4534 0.5631 7.2813
O    -1.7375 -2.0787 4.0877
N    -2.9511 -3.2485 8.1417
Cu   0.6324 -0.2089 2.7214
O    1.8483 2.2906 4.4020
O    -0.1365 -2.0150 2.5068
O    1.9041 1.2527 2.4004
C    -0.1762 3.0097 10.7435
C    0.4117 2.7084 9.3998
C    1.8797 2.3262 7.8234
O    -0.3893 0.3661 1.1466
O    -5.1217 2.3975 6.7758
O    -6.1797 3.1397 8.6286
O    -3.4897 1.4414 8.7617
O    1.0364 -0.6144 -0.2358
C    -3.3619 5.8520 6.1530
C    -2.2099 5.0337 5.6909
C    -0.5941 4.3839 4.3901
C    -3.3256 4.7352 9.6299
O    -2.6518 4.2467 8.6787
O    -4.2528 4.1831 10.2596
O    -6.2376 -0.1225 8.3644
O    -6.2934 0.9154 10.3661
H    -1.1514 3.0622 10.6698
H    0.1738 3.8657 11.0693
C    -6.6230 -0.0020 9.5552
H    0.0668 2.2977 11.3721
O    -4.0000 1.8020 11.6199
H    2.7004 2.2168 7.3562
O    -5.4257 2.7824 13.0023
H    -3.9107 5.3250 6.7698
O    0.7324 -0.2295 5.9907
H    -3.9056 6.1174 5.3813
O    -0.8996 0.7266 4.0048
H    -3.0322 6.6531 6.6088
H    0.0668 4.3652 3.7060
O    1.7904 -0.9716 4.1378
C    -4.3893 2.1680 12.7665
O    -2.1946 1.0840 6.3832
C    1.5520 -0.9769 5.3777
H    -3.2379 -0.8941 2.0967
C    -4.2131 -0.8417 2.0229
C    -4.8010 -0.5404 3.3667
C    -6.2690 -0.1581 4.9431
H    -7.0896 -0.0488 5.4103
H    -4.5631 -1.6977 1.6972
H    -4.4561 -0.1297 1.3944
H    -0.4786 -3.1569 5.9966
H    -0.4837 -3.9493 7.3852
H    -1.3570 -4.4850 6.1577
H    -4.4561 -2.1972 9.0605
C    -1.0636 -2.5672 3.1365
C    -1.0274 -3.6840 6.6134
C    -2.1794 -2.8657 7.0756
C    -3.7952 -2.2159 8.3764
C    2.2337 2.1700 3.2113
N    0.6871 2.1942 7.3051
N    -0.2562 2.4406 8.2841
N    1.7543 2.6462 9.1451
N    -1.8375 3.8356 6.0752
N    -0.8204 3.4177 5.2389
N    -1.4382 5.4165 4.6248
X    -0.0910 0.5707 -0.3335
X    -6.4912 -0.2116 3.1224
X    -5.9353 3.8950 7.3456
X    -3.2801 -3.9723 7.9859
X    -3.0348 5.2307 10.2213
X    -7.3941 -0.4329 9.2277
X    -4.2983 1.5974 13.0999
X    1.5460 -1.7269 5.4209
X    -1.3545 -3.0626 2.5452
X    3.0048 2.6009 3.5388
X    2.1019 2.3796 9.6441
X    -1.1092 6.1404 4.7806
   0   21 S
   0   25 D
   0   73 S
   1   11 S
   1   24 S
   1   30 S
   1   49 S
   1   68 S
   1   70 S
   2   10 S
   2   15 S
   2   42 S
   2   44 S
   2   67 S
   2   71 S
   3   23 S
   3   24 S
   3   31 S
   3   33 S
   3   38 S
   4    5 A
   4   11 S
   4   54 A
   5   10 S
   5   53 A
   6    7 A
   6   10 S
   6   64 A
   7   11 S
   7   65 A
   8   53 A
   8   54 A
   8   74 S
   9   22 A
   9   23 A
   9   75 S
  10   12 S
  10   44 S
  10   49 S
  11   22 S
  11   24 S
  11   32 S
  12   62 A
  13   64 A
  13   65 A
  13   76 S
  14   16 S
  14   17 S
  14   21 S
  14   44 S
  14   47 S
  15   66 A
  16   62 A
  17   66 A
  18   19 S
  18   34 S
  18   35 S
  18   37 S
  19   68 A
  19   69 A
  20   39 S
  20   67 A
  20   69 A
  26   27 S
  26   41 S
  26   43 S
  26   45 S
  27   70 A
  27   72 A
  28   46 S
  28   71 A
  28   72 A
  29   30 A
  29   31 A
  29   77 S
  32   36 A
  33   36 A
  36   78 S
  38   48 S
  40   48 D
  42   50 A
  47   50 A
  48   79 S
  50   80 S
  51   52 S
  52   53 S
  52   56 S
  52   57 S
  54   55 S
  58   63 S
  59   63 S
  60   63 S
  61   65 S
  62   81 S
  63   64 S
  66   82 S
  67   68 A
  69   83 S
  70   71 A
  72   84 S
