133
  125  126  127  128  129  130  131  132
Co   0.0000 0.0000 0.0000
Co   0.5819 -4.1707 5.1804
H    -0.1941 -3.0143 -0.6706
H    1.0374 -1.1184 5.7421
H    -3.0134 0.4688 -1.0928
H    -3.2723 0.2637 -2.6237
H    -4.2024 -0.4317 -1.5727
H    -0.3064 -4.9902 -2.0771
H    -1.7736 -5.2946 -2.5371
H    -0.7667 -4.6166 -3.5281
H    3.4224 -4.8822 6.4887
H    4.6485 -4.0875 7.0575
H    3.5457 -4.6317 8.0330
H    1.3004 0.8791 7.0864
H    1.6388 0.5314 8.5751
H    2.7717 1.0195 7.6086
H    -0.0434 -5.3162 2.3958
H    3.1279 -3.6341 3.5045
H    -1.8654 -5.7200 6.4798
H    -3.1928 -6.3549 5.9399
H    -2.0106 -7.2791 6.3954
H    -0.4612 -6.7933 0.5915
H    -0.7051 -8.2573 1.0937
H    -1.9161 -7.3785 0.6270
H    0.9347 -7.2640 5.0044
H    1.6703 -8.2444 4.0289
H    2.2333 -8.0068 5.4710
H    5.3814 -3.7226 2.6202
H    6.2348 -4.8368 3.3201
H    5.6403 -5.0852 1.8914
H    2.7402 -1.2566 0.6559
H    -2.6065 -0.6260 1.6514
H    -2.1284 -2.9236 4.3378
H    0.9388 1.0346 2.8091
H    5.0773 -1.9022 0.6626
H    5.3951 -2.8416 -0.5506
H    5.8444 -1.3386 -0.5839
H    0.3497 -0.6994 -3.1237
H    1.5813 -0.2308 -3.9747
H    1.1881 -1.7467 -3.9369
H    -0.2133 3.0493 0.6182
H    -1.4421 3.8720 0.0982
H    -1.0270 3.9541 1.6070
H    -4.8984 -0.5742 2.2647
H    -5.2874 0.7452 3.0179
H    -5.6710 0.5617 1.5092
H    -4.4518 -2.4464 4.2911
H    -5.1764 -3.0510 5.5443
H    -4.9066 -1.5070 5.4621
H    0.2881 -3.0640 8.1085
H    -0.6229 -2.0167 8.8351
H    -0.9092 -3.5498 8.9951
H    2.1046 1.6867 -1.4816
H    2.2621 3.2372 -1.3128
H    3.5046 2.2978 -1.1283
H    1.7690 2.3432 4.6244
H    3.2265 2.8420 4.3400
H    2.0196 3.8332 4.2111
C    -1.4736 -3.3231 -2.1238
C    -2.4805 -2.4809 -2.5726
C    -2.3983 -1.3537 -1.7527
C    -3.3024 -0.1553 -1.7616
C    -1.0407 -4.6792 -2.6104
C    2.2320 -0.8938 7.2842
C    3.1019 -1.8439 7.8219
C    2.9553 -2.9884 7.0153
C    3.7101 -4.2603 7.1620
C    1.9621 0.5055 7.6730
C    -1.2339 -6.8602 2.4602
C    -1.9846 -7.3223 3.5423
C    -1.6873 -6.4240 4.5911
C    -2.2380 -6.4478 5.9732
C    -1.0640 -7.3677 1.0692
C    4.2635 -5.2277 3.3490
C    3.9361 -6.5384 3.7134
C    2.6197 -6.4672 4.2156
C    1.7909 -7.5966 4.7244
C    5.4869 -4.6684 2.7424
C    2.1142 -1.1356 -2.2571
C    3.4841 -1.4898 -2.2616
C    3.8512 -1.5697 -0.9284
C    5.1608 -1.9476 -0.2929
C    1.2306 -0.9348 -3.4259
C    -3.7134 0.9871 1.7736
C    -3.3504 2.2784 1.5247
C    -1.9914 2.2266 1.1537
C    -1.0873 3.3797 0.8404
C    -5.0079 0.3760 2.1780
C    -1.4969 -2.8243 7.2175
C    -2.8805 -2.5630 7.2286
C    -3.2517 -2.5695 5.9087
C    -4.5627 -2.3773 5.2421
C    -0.6078 -2.8675 8.3907
C    2.1539 2.5526 2.6491
C    2.7114 3.0795 1.4981
C    2.2457 2.2546 0.4448
C    2.5566 2.3799 -0.9972
C    2.3060 2.9262 4.0845
C    0.6333 -5.9727 7.7752
C    -0.7503 1.7040 -2.5860
S    0.8463 -1.7832 2.8173
S    -1.2681 2.3527 -3.9794
S    0.4922 -6.8559 9.1482
N    -1.4147 -1.4703 -0.8661
N    -0.8585 -2.6904 -1.1106
N    1.6224 -1.5027 6.2420
N    2.0320 -2.7854 6.0709
N    -0.8489 -5.4911 4.1822
N    -0.5763 -5.7783 2.8868
N    3.1786 -4.4827 3.6423
N    2.1923 -5.2061 4.1689
N    1.6785 -0.9931 -0.9928
N    2.7580 -1.2717 -0.2018
N    -1.5585 0.9611 1.1559
N    -2.6229 0.2270 1.5514
N    -1.0572 -3.0035 5.9798
N    -2.1421 -2.8502 5.1933
N    1.4374 1.3067 0.9226
N    1.3991 1.5161 2.2647
N    -0.3722 1.2462 -1.5927
N    0.6854 -5.3788 6.8175
O    0.3347 -3.0549 3.3546
O    0.1360 -1.5291 1.5354
O    0.5771 -0.6910 3.7530
O    2.2854 -1.9238 2.5542
X    -2.9230 -2.5943 -3.1548
X    3.5354 -1.7392 8.4074
X    -2.4086 -7.9205 3.5645
X    4.3704 -7.1280 3.6634
X    3.9265 -1.6031 -2.8437
X    -3.7743 2.8765 1.5470
X    -3.3141 -2.4583 7.8141
X    3.1457 3.6690 1.4481
   0  103 S
   0  111 S
   0  113 S
   0  117 S
   0  119 S
   0  122 S
   1  106 S
   1  107 S
   1  110 S
   1  115 S
   1  120 S
   1  121 S
   2  104 S
   3  105 S
   4   61 S
   5   61 S
   6   61 S
   7   62 S
   8   62 S
   9   62 S
  10   66 S
  11   66 S
  12   66 S
  13   67 S
  14   67 S
  15   67 S
  16  108 S
  17  109 S
  18   71 S
  19   71 S
  20   71 S
  21   72 S
  22   72 S
  23   72 S
  24   76 S
  25   76 S
  26   76 S
  27   77 S
  28   77 S
  29   77 S
  30  112 S
  31  114 S
  32  116 S
  33  118 S
  34   81 S
  35   81 S
  36   81 S
  37   82 S
  38   82 S
  39   82 S
  40   86 S
  41   86 S
  42   86 S
  43   87 S
  44   87 S
  45   87 S
  46   91 S
  47   91 S
  48   91 S
  49   92 S
  50   92 S
  51   92 S
  52   96 S
  53   96 S
  54   96 S
  55   97 S
  56   97 S
  57   97 S
  58   59 A
  58   62 S
  58  104 A
  59   60 A
  59  125 S
  60   61 S
  60  103 A
  63   64 A
  63   67 S
  63  105 A
  64   65 A
  64  126 S
  65   66 S
  65  106 A
  68   69 A
  68   72 S
  68  108 A
  69   70 A
  69  127 S
  70   71 S
  70  107 A
  73   74 A
  73   77 S
  73  109 A
  74   75 A
  74  128 S
  75   76 S
  75  110 A
  78   79 A
  78   82 S
  78  111 A
  79   80 A
  79  129 S
  80   81 S
  80  112 A
  83   84 A
  83   87 S
  83  114 A
  84   85 A
  84  130 S
  85   86 S
  85  113 A
  88   89 A
  88   92 S
  88  115 A
  89   90 A
  89  131 S
  90   91 S
  90  116 A
  93   94 A
  93   97 S
  93  118 A
  94   95 A
  94  132 S
  95   96 S
  95  117 A
  98  102 D
  98  120 D
  99  101 D
  99  119 D
 100  121 S
 100  122 S
 100  123 D
 100  124 D
 103  104 A
 105  106 A
 107  108 A
 109  110 A
 111  112 A
 113  114 A
 115  116 A
 117  118 A
