49
   41   42   43   44   45   46   47   48
Mn   0.0000 0.0000 0.0000
Zn   2.5692 -2.5417 0.0617
C    -1.3496 1.7133 2.4037
Zn   -2.5692 2.5417 -0.0617
C    -2.9503 -0.0416 -1.3473
H    4.4307 -3.7725 -1.9890
C    -4.7775 4.1269 1.2029
H    6.2217 -5.1759 -2.1128
H    6.0733 -5.6246 1.8363
C    -6.3794 5.5116 0.1465
H    4.3454 -4.0920 1.8673
C    -5.8511 4.9704 1.2854
C    -5.7808 5.2278 -1.0461
C    -4.7183 4.3292 -1.0481
C    -0.4220 3.0382 -1.3845
N    4.2045 -3.7903 -0.0516
H    -4.4307 3.7725 1.9890
N    -4.2045 3.7903 0.0516
O    2.1234 -2.5299 -1.8074
O    0.8287 -0.7069 -1.8941
H    -6.2217 5.1759 2.1128
H    -6.0733 5.6246 -1.8363
O    0.3823 -1.9474 0.7634
O    1.9362 0.5813 0.8934
O    3.3716 -1.1202 1.0440
H    -4.3454 4.0920 -1.8673
O    1.4203 -3.7933 1.2483
O    -2.1234 2.5299 1.8074
O    -0.8287 0.7069 1.8941
C    1.3496 -1.7133 -2.4037
O    -0.3823 1.9474 -0.7634
O    -1.9362 -0.5813 -0.8934
O    -3.3716 1.1202 -1.0440
C    2.9503 0.0416 1.3473
O    -1.4203 3.7933 -1.2483
C    4.7775 -4.1269 -1.2029
C    6.3794 -5.5116 -0.1465
C    5.8511 -4.9704 -1.2854
C    5.7808 -5.2278 1.0461
C    4.7183 -4.3292 1.0481
C    0.4220 -3.0382 1.3845
X    -1.0603 1.9090 2.9922
X    -3.5295 -0.2481 -1.6657
X    -6.8220 6.1795 0.0807
X    0.1545 2.9164 -1.9197
X    1.0603 -1.9090 -2.9922
X    3.5295 0.2481 1.6657
X    6.8220 -6.1795 -0.0807
X    -0.1545 -2.9164 1.9197
   0   19 S
   0   22 S
   0   23 S
   0   28 S
   0   30 S
   0   31 S
   1   15 S
   1   18 S
   1   22 S
   1   24 S
   1   26 S
   2   27 A
   2   28 A
   2   41 S
   3   17 S
   3   27 S
   3   30 S
   3   32 S
   3   34 S
   4   31 A
   4   32 A
   4   42 S
   5   35 S
   6   11 A
   6   16 S
   6   17 A
   7   37 S
   8   38 S
   9   11 A
   9   12 A
   9   43 S
  10   39 S
  11   20 S
  12   13 A
  12   21 S
  13   17 A
  13   25 S
  14   30 S
  14   34 D
  14   44 S
  15   35 A
  15   39 A
  18   29 A
  19   29 A
  22   40 S
  23   33 A
  24   33 A
  26   40 D
  29   45 S
  33   46 S
  35   37 A
  36   37 A
  36   38 A
  36   47 S
  38   39 A
  40   48 S
