24
   21   22   23
C    0.0000 0.0000 0.0000
C    0.9011 -0.0364 1.0535
C    -0.7224 1.1525 -0.2736
C    1.1096 1.0948 1.8191
C    -0.5157 2.2997 0.4982
C    0.4059 2.2624 1.5272
C    0.4114 5.5441 2.8788
C    1.2176 5.5238 3.9364
C    -0.3314 6.6492 2.6542
C    1.4001 6.6927 4.7020
C    -0.1601 7.8102 3.3851
C    0.7391 7.8168 4.4202
H    -0.1210 -0.7551 -0.5288
H    1.7147 1.0794 2.5235
H    -0.9923 3.0801 0.3205
H    1.6607 4.7393 4.1671
H    -0.9793 6.6284 1.9886
H    1.9940 6.6772 5.4186
H    -0.6460 8.5748 3.1769
N    0.7075 3.3781 2.3724
N    0.1303 4.4141 2.0396
X    1.5524 -0.3855 1.3120
X    -1.0911 1.1140 -0.9404
X    0.3602 8.1371 4.8182
   0    1 A
   0    2 A
   0   12 S
   1    3 A
   1   21 S
   2    4 A
   2   22 S
   3    5 A
   3   13 S
   4    5 A
   4   14 S
   5   19 S
   6    7 A
   6    8 A
   6   20 S
   7    9 A
   7   15 S
   8   10 A
   8   16 S
   9   11 A
   9   17 S
  10   11 A
  10   18 S
  11   23 S
  19   20 D
