46
   40   41   42   43   44   45
O    0.0000 0.0000 0.0000
O    0.5574 0.7883 -2.0182
Cu   -0.9048 -1.2795 -1.1681
Cu   -0.9048 -4.1969 -2.8524
Cu   -3.6553 -2.2520 -2.8524
C    0.6095 0.8620 -0.7407
H    2.1817 -1.5036 -0.1408
H    -2.1449 -6.5043 -4.7942
H    -5.4173 0.3988 -2.1448
O    -0.0000 -5.8483 -3.3765
O    0.5574 -4.4946 -5.0683
H    -2.1448 1.5558 -0.1408
H    -5.4173 -4.1903 -4.7942
O    -1.6486 -2.3315 -2.7148
O    -3.2985 -4.6648 1.3268
H    2.1817 -4.9746 -2.1448
O    -1.8447 -2.6088 0.4190
O    -1.8447 -4.9068 -0.9077
O    -4.0113 -3.3748 -0.9077
C    0.6095 -5.6378 -4.4934
Se   -2.7508 -3.8902 -0.0150
N    0.7609 -2.3693 -1.2959
H    -1.3721 -1.9405 -3.3920
N    -2.4874 -4.6898 -3.9618
C    1.9255 -2.2184 -0.7104
N    -3.5924 -0.4630 -1.9726
C    -2.7334 -5.7710 -4.6635
C    -4.5298 0.4408 -1.8105
N    -2.4874 -0.0723 -1.2959
N    -3.5925 -3.9084 -3.9618
C    -2.7334 1.0759 -0.7104
C    -4.5298 -4.5007 -4.6635
N    0.7609 -3.5413 -1.9726
C    1.9255 -4.1238 -1.8105
N    2.6985 -3.2798 -1.0722
N    -3.9918 -5.6452 -5.1691
N    -3.9917 1.4509 -1.0722
C    -5.5186 -1.3046 -4.4934
O    -5.5138 -1.9494 -3.3765
O    -4.4234 -0.9727 -5.0683
X    1.4012 1.3446 -1.0310
X    0.6095 -6.3841 -4.4199
X    3.4919 -3.5443 -1.1156
X    -4.7850 -6.1287 -4.9574
X    -3.9917 2.1989 -1.2252
X    -6.3102 -1.0408 -4.5291
   0    2 S
   0    5 S
   1    5 D
   2   13 S
   2   16 S
   2   21 S
   2   28 S
   3    9 S
   3   13 S
   3   17 S
   3   23 S
   3   32 S
   4   13 S
   4   18 S
   4   25 S
   4   29 S
   4   38 S
   5   40 S
   6   24 S
   7   26 S
   8   27 S
   9   19 S
  10   19 D
  11   30 S
  12   31 S
  13   22 S
  14   20 D
  15   33 S
  16   20 A
  17   20 A
  18   20 A
  19   41 S
  21   24 A
  21   32 A
  23   26 A
  23   29 A
  24   34 A
  25   27 A
  25   28 A
  26   35 A
  27   36 A
  28   30 A
  29   31 A
  30   36 A
  31   35 A
  32   33 A
  33   34 A
  34   42 S
  35   43 S
  36   44 S
  37   38 S
  37   39 D
  37   45 S
