73
   65   66   67   68   69   70   71   72
Cl   0.0000 0.0000 0.0000
Cl   -5.2386 1.1402 0.0000
Cu   -0.8285 -2.4899 0.0000
Cu   -4.4101 3.6301 0.0000
Cu   -2.6193 0.5701 0.0000
H    -7.0535 2.9229 -1.3088
H    -5.7883 6.7118 -3.4631
H    -8.1970 3.6432 -3.3022
H    -4.6834 5.8725 -1.6846
H    1.8149 -1.7827 -1.3088
H    0.5497 -5.5716 -3.4631
H    2.9584 -2.5030 -3.3022
H    -0.5552 -4.7322 -1.6846
H    1.8149 -1.7827 1.3088
H    0.5497 -5.5716 3.4631
H    2.9584 -2.5030 3.3022
H    -0.5552 -4.7322 1.6846
H    -7.0535 2.9229 1.3088
H    -5.7883 6.7118 3.4631
H    -8.1970 3.6432 3.3022
H    -4.6834 5.8725 1.6846
C    -7.1162 5.0748 -3.6716
C    -6.7294 3.6640 -1.8088
C    -6.0341 5.8710 -3.0968
C    -7.4319 4.1328 -3.0204
C    -5.4015 5.3576 -2.0301
C    1.8776 -3.9346 -3.6716
C    1.4908 -2.5238 -1.8088
C    0.7955 -4.7307 -3.0968
C    2.1932 -2.9926 -3.0204
C    0.1629 -4.2173 -2.0301
C    -3.4278 -1.9360 -3.0761
C    -1.8108 3.0762 -3.0761
C    1.8776 -3.9346 3.6716
C    1.4908 -2.5238 1.8088
C    0.7955 -4.7307 3.0968
C    2.1932 -2.9926 3.0204
C    0.1629 -4.2173 2.0301
C    -7.1162 5.0748 3.6716
C    -6.7294 3.6640 1.8088
C    -6.0341 5.8710 3.0968
C    -7.4319 4.1328 3.0204
C    -5.4015 5.3576 2.0301
C    -1.8108 3.0762 3.0761
C    -3.4278 -1.9360 3.0761
N    -5.6401 4.3069 -1.4473
N    0.4015 -3.1667 -1.4473
N    -2.8254 -0.8407 -1.3996
N    -2.1819 -1.9925 -1.4107
N    -2.5434 -2.7217 -2.4504
N    -3.6255 -0.7841 -2.4838
N    -2.4133 1.9809 -1.3996
N    -3.0567 3.1327 -1.4107
N    -2.6952 3.8619 -2.4504
N    -1.6132 1.9244 -2.4838
N    0.4015 -3.1667 1.4473
N    -5.6401 4.3069 1.4473
N    -2.4133 1.9809 1.3996
N    -3.0567 3.1327 1.4107
N    -2.6952 3.8619 2.4504
N    -1.6132 1.9244 2.4838
N    -2.8254 -0.8407 1.3996
N    -2.1819 -1.9925 1.4107
N    -2.5434 -2.7217 2.4504
N    -3.6255 -0.7841 2.4838
X    -7.4759 5.2898 -4.2783
X    2.2372 -4.1496 -4.2783
X    -3.7875 -2.1510 -3.6828
X    -1.4511 3.2912 -3.6828
X    2.2372 -4.1496 4.2783
X    -7.4759 5.2898 4.2783
X    -1.4511 3.2912 3.6828
X    -3.7875 -2.1510 3.6828
   0    2 S
   0    4 S
   1    3 S
   1    4 S
   2   46 S
   2   48 S
   2   55 S
   2   62 S
   3   45 S
   3   52 S
   3   56 S
   3   58 S
   4   47 S
   4   51 S
   4   57 S
   4   61 S
   5   22 S
   6   23 S
   7   24 S
   8   25 S
   9   27 S
  10   28 S
  11   29 S
  12   30 S
  13   34 S
  14   35 S
  15   36 S
  16   37 S
  17   39 S
  18   40 S
  19   41 S
  20   42 S
  21   23 A
  21   24 A
  21   65 S
  22   24 A
  22   45 A
  23   25 A
  25   45 A
  26   28 A
  26   29 A
  26   66 S
  27   29 A
  27   46 A
  28   30 A
  30   46 A
  31   49 A
  31   50 A
  31   67 S
  32   53 A
  32   54 A
  32   68 S
  33   35 A
  33   36 A
  33   69 S
  34   36 A
  34   55 A
  35   37 A
  37   55 A
  38   40 A
  38   41 A
  38   70 S
  39   41 A
  39   56 A
  40   42 A
  42   56 A
  43   59 A
  43   60 A
  43   71 S
  44   63 A
  44   64 A
  44   72 S
  47   48 A
  47   50 A
  48   49 A
  51   52 A
  51   54 A
  52   53 A
  57   58 A
  57   60 A
  58   59 A
  61   62 A
  61   64 A
  62   63 A
