57
   49   50   51   52   53   54   55   56
N    0.0000 0.0000 0.0000
N    0.2077 -1.2363 -0.4207
N    -1.8661 1.3195 -2.2856
N    -2.0362 0.3504 -3.1690
N    -0.1120 3.8002 -2.2856
N    0.7450 4.2836 -3.1690
N    1.7541 2.4807 0.0000
N    2.9890 2.6969 -0.4207
N    -3.0910 5.9067 1.3630
N    -3.2988 7.1431 1.7837
N    -2.9790 2.1065 3.6486
N    -3.8360 1.6231 4.5320
C    0.1484 5.3489 5.0450
C    -6.8021 3.0771 0.6815
Mn   0.0390 1.8329 2.6222
O    1.2821 0.9540 4.1447
Mn   -3.1301 4.0738 -1.2592
O    -4.3732 4.9528 -2.7816
C    0.3233 -1.9614 0.6815
C    0.1484 5.3489 -3.6819
N    -1.8661 1.3196 3.6486
N    -2.0362 0.3505 4.5320
Mn   -3.1300 4.0738 2.6222
O    -4.3731 4.9528 4.1447
N    1.7541 2.4807 1.3630
N    2.9890 2.6969 1.7837
Mn   0.0390 1.8329 -1.2592
O    1.2821 0.9539 -2.7816
Cl   -1.5455 2.9534 0.6815
N    -3.0910 5.9067 0.0000
N    -3.2988 7.1430 -0.4207
N    -1.2249 4.5872 -2.2856
N    -1.0549 5.5563 -3.1690
N    -2.9790 2.1065 -2.2856
N    -3.8361 1.6231 -3.1690
N    -4.8451 3.4260 0.0000
N    -6.0800 3.2098 -0.4207
N    0.0000 0.0000 1.3630
N    0.2077 -1.2363 1.7837
N    -0.1120 3.8003 3.6486
N    0.7451 4.2837 4.5320
C    -3.2394 0.5579 5.0450
C    3.7111 2.8297 0.6815
N    -1.2249 4.5872 3.6486
N    -1.0548 5.5564 4.5320
C    -3.4143 7.8681 0.6815
N    -6.0800 3.2098 1.7837
N    -4.8451 3.4261 1.3630
C    -3.2394 0.5578 -3.6819
X    0.9029 5.8087 4.9487
X    -7.5565 3.2073 0.9936
X    0.1947 -2.6296 1.0799
X    0.2772 5.4272 -4.2965
X    -3.3682 0.4795 5.6595
X    4.4655 2.6994 0.3694
X    -3.2857 8.5363 0.2831
X    -3.9939 0.0981 -3.5857
   0    1 A
   0   26 S
   0   37 A
   1   18 A
   2    3 A
   2   26 S
   2   33 A
   3   48 A
   4    5 A
   4   26 S
   4   31 A
   5   19 A
   6    7 A
   6   24 A
   6   26 S
   7   42 A
   8    9 A
   8   22 S
   8   29 A
   9   45 A
  10   11 A
  10   20 A
  10   22 S
  11   41 A
  12   40 A
  12   44 A
  12   49 S
  13   36 A
  13   46 A
  13   50 S
  14   15 S
  14   20 S
  14   24 S
  14   28 S
  14   37 S
  14   39 S
  16   17 S
  16   28 S
  16   29 S
  16   31 S
  16   33 S
  16   35 S
  18   38 A
  18   51 S
  19   32 A
  19   52 S
  20   21 A
  21   41 A
  22   23 S
  22   28 S
  22   43 S
  22   47 S
  24   25 A
  25   42 A
  26   27 S
  26   28 S
  29   30 A
  30   45 A
  31   32 A
  33   34 A
  34   48 A
  35   36 A
  35   47 A
  37   38 A
  39   40 A
  39   43 A
  41   53 S
  42   54 S
  43   44 A
  45   55 S
  46   47 A
  48   56 S
