43
   35   36   37   38   39   40   41   42
Co   0.0000 0.0000 0.0000
Co   3.6053 1.4175 -2.1253
Co   1.8701 2.6447 -0.0002
Co   1.7352 -1.2272 -2.1251
O    3.5783 2.6138 -3.8016
O    -1.9236 0.1830 -0.7128
O    -2.5971 -1.9101 -1.0634
O    2.5490 -2.9797 -1.4126
Co   -0.8659 -3.0652 -1.0627
O    0.8001 -4.3124 -1.0619
O    3.0069 3.0179 1.6763
Co   4.4713 4.4827 -1.0627
O    4.5045 4.5283 1.0177
O    0.3853 -1.2957 -1.0627
O    3.2200 2.7132 -1.0627
O    0.2041 1.8391 0.8952
O    3.4012 -0.4216 -3.0205
O    1.8027 0.7088 -1.0627
O    4.5032 4.5292 -3.1431
C    4.0162 3.8003 -4.0040
C    -2.7941 -0.6976 -1.0402
C    2.0090 -4.0939 -1.0851
C    -0.4109 -2.3828 1.8786
C    3.9796 3.8263 1.8786
C    6.3994 2.1151 -1.0851
C    1.5964 5.5114 -1.0402
O    -0.8979 -3.1117 1.0177
O    0.0270 -1.1963 1.6763
O    6.2025 3.3277 -1.0619
O    5.5289 1.2345 -1.4126
C    -0.3743 -2.4088 -4.0040
O    1.0563 4.3972 -0.7128
O    -0.8992 -3.1108 -3.1431
O    0.5984 -1.6004 -3.8016
O    2.8052 5.7299 -1.0634
X    3.6751 3.7576 -4.5198
X    -3.4948 -0.3074 -1.0278
X    2.3500 -4.7033 -0.8080
X    -0.0698 -2.3401 2.3945
X    4.6803 4.0884 2.1050
X    7.1001 1.7250 -1.0975
X    1.2553 6.1208 -1.3173
X    -1.0750 -2.6709 -4.2303
   0    5 S
   0   13 S
   0   15 S
   0   17 S
   0   27 S
   1    4 S
   1   14 S
   1   16 S
   1   17 S
   1   29 S
   2   10 S
   2   14 S
   2   15 S
   2   17 S
   2   31 S
   3    7 S
   3   13 S
   3   16 S
   3   17 S
   3   33 S
   4   19 A
   5   20 A
   6    8 S
   6   20 A
   7   21 A
   8    9 S
   8   13 S
   8   26 S
   8   32 S
   9   21 A
  10   23 A
  11   12 S
  11   14 S
  11   18 S
  11   28 S
  11   34 S
  12   23 A
  18   19 A
  19   35 S
  20   36 S
  21   37 S
  22   26 A
  22   27 A
  22   38 S
  23   39 S
  24   28 A
  24   29 A
  24   40 S
  25   31 A
  25   34 A
  25   41 S
  30   32 A
  30   33 A
  30   42 S
