89
   81   82   83   84   85   86   87   88
Tb   0.0000 0.0000 0.0000
H    -1.9176 -3.3613 -1.4665
H    -4.0825 -3.9931 -1.9864
H    -4.8000 -0.2376 -3.3077
H    -2.7343 0.6747 -5.0037
H    -1.3714 4.2809 -3.6960
H    -1.2637 3.4359 -1.5298
H    1.9176 3.3613 -1.4665
H    4.0825 3.9931 -1.9864
H    4.8000 0.2376 -3.3077
H    2.7343 -0.6747 -5.0037
H    1.3714 -4.2809 -3.6960
H    1.2637 -3.4359 -1.5298
H    -3.3613 1.9176 1.4665
H    -3.9931 4.0825 1.9864
H    -0.2376 4.8000 3.3077
H    0.6747 2.7343 5.0037
H    4.2809 1.3714 3.6960
H    3.4359 1.2637 1.5298
H    3.3613 -1.9176 1.4665
H    3.9931 -4.0825 1.9864
H    0.2376 -4.8000 3.3077
H    -0.6747 -2.7343 5.0037
H    -4.2809 -1.3714 3.6960
H    -3.4359 -1.2637 1.5298
C    -2.5041 -2.7282 -1.8635
C    -3.7874 -3.1090 -2.1675
C    -4.6507 -2.1833 -2.7419
C    -4.2086 -0.8878 -2.9467
C    -2.8886 -0.5327 -2.6228
C    -2.3768 0.7886 -2.9690
C    -2.4429 1.2478 -4.3052
C    -2.0694 2.5592 -4.5670
C    -1.6286 3.3833 -3.5211
C    -1.5723 2.8849 -2.2395
C    2.5041 2.7282 -1.8635
C    3.7874 3.1090 -2.1675
C    4.6507 2.1833 -2.7419
C    4.2086 0.8878 -2.9467
C    2.8886 0.5327 -2.6228
C    2.3768 -0.7886 -2.9690
C    2.4429 -1.2478 -4.3052
C    2.0694 -2.5592 -4.5670
C    1.6286 -3.3833 -3.5211
C    1.5723 -2.8849 -2.2395
C    -2.7282 2.5041 1.8635
C    -3.1090 3.7874 2.1675
C    -2.1833 4.6507 2.7419
C    -0.8878 4.2086 2.9467
C    -0.5327 2.8886 2.6228
C    0.7886 2.3768 2.9690
C    1.2478 2.4429 4.3052
C    2.5592 2.0694 4.5670
C    3.3833 1.6286 3.5211
C    2.8849 1.5723 2.2395
C    2.7282 -2.5041 1.8635
C    3.1090 -3.7874 2.1675
C    2.1833 -4.6507 2.7419
C    0.8878 -4.2086 2.9467
C    0.5327 -2.8886 2.6228
C    -0.7886 -2.3768 2.9690
C    -1.2478 -2.4429 4.3052
C    -2.5592 -2.0694 4.5670
C    -3.3833 -1.6286 3.5211
C    -2.8849 -1.5723 2.2395
N    -2.0572 -1.4951 -2.1067
N    -1.9580 1.6041 -1.9864
N    2.0572 1.4951 -2.1067
N    1.9580 -1.6041 -1.9864
N    -1.4951 2.0572 2.1067
N    1.6041 1.9580 1.9864
N    1.4951 -2.0572 2.1067
N    -1.6041 -1.9580 1.9864
O    -0.8057 -1.1755 -1.9008
O    -1.9004 1.1669 -0.7370
O    0.8057 1.1755 -1.9008
O    1.9004 -1.1669 -0.7370
O    -1.1755 0.8057 1.9008
O    1.1669 1.9004 0.7370
O    1.1755 -0.8057 1.9008
O    -1.1669 -1.9004 0.7370
X    -5.4777 -2.3966 -2.9912
X    -2.1440 2.8937 -5.3877
X    5.4777 2.3966 -2.9912
X    2.1440 -2.8937 -5.3877
X    -2.3966 5.4777 2.9912
X    2.8937 2.1440 5.3877
X    2.3966 -5.4777 2.9912
X    -2.8937 -2.1440 5.3877
   0   73 S
   0   74 S
   0   75 S
   0   76 S
   0   77 S
   0   78 S
   0   79 S
   0   80 S
   1   25 S
   2   26 S
   3   28 S
   4   31 S
   5   33 S
   6   34 S
   7   35 S
   8   36 S
   9   38 S
  10   41 S
  11   43 S
  12   44 S
  13   45 S
  14   46 S
  15   48 S
  16   51 S
  17   53 S
  18   54 S
  19   55 S
  20   56 S
  21   58 S
  22   61 S
  23   63 S
  24   64 S
  25   26 A
  25   65 A
  26   27 A
  27   28 A
  27   81 S
  28   29 A
  29   30 S
  29   65 A
  30   31 A
  30   66 A
  31   32 A
  32   33 A
  32   82 S
  33   34 A
  34   66 A
  35   36 A
  35   67 A
  36   37 A
  37   38 A
  37   83 S
  38   39 A
  39   40 S
  39   67 A
  40   41 A
  40   68 A
  41   42 A
  42   43 A
  42   84 S
  43   44 A
  44   68 A
  45   46 A
  45   69 A
  46   47 A
  47   48 A
  47   85 S
  48   49 A
  49   50 S
  49   69 A
  50   51 A
  50   70 A
  51   52 A
  52   53 A
  52   86 S
  53   54 A
  54   70 A
  55   56 A
  55   71 A
  56   57 A
  57   58 A
  57   87 S
  58   59 A
  59   60 S
  59   71 A
  60   61 A
  60   72 A
  61   62 A
  62   63 A
  62   88 S
  63   64 A
  64   72 A
  65   73 S
  66   74 S
  67   75 S
  68   76 S
  69   77 S
  70   78 S
  71   79 S
  72   80 S
