27
   21   22   23   24   25   26
C    0.0000 0.0000 0.0000
Cd   -1.1735 -0.5090 -3.1701
Cd   -2.2600 1.6777 -0.0180
Cd   -2.5910 -1.9884 -0.3865
C    -2.4631 3.9379 1.4108
C    -4.4627 -0.6859 1.0535
C    -1.7519 2.3707 -3.1279
O    -1.1506 -2.7351 -2.6889
O    -2.7685 -3.7658 -1.6333
C    -1.9679 -3.6627 -2.5746
O    -4.0233 1.2926 -1.4292
O    -3.3084 -0.6720 -2.1968
O    -0.9197 -0.4227 -0.7840
O    -0.1899 0.9636 0.7493
O    -3.1390 3.0346 1.5211
O    -1.4820 3.9370 0.5594
O    -3.3326 -0.1318 1.1066
O    -4.6489 -1.7715 0.4839
C    -4.1034 0.3147 -2.2009
O    -1.1673 2.2346 -2.0192
O    -1.8208 1.4506 -3.9854
X    0.8437 0.0677 0.3007
X    -3.0133 4.1724 1.7230
X    -5.3292 -0.8742 1.0153
X    -2.4033 2.7198 -3.3863
X    -1.5201 -3.8222 -3.0080
X    -4.4722 0.2762 -2.8677
   0   12 S
   0   13 D
   0   21 S
   1    7 S
   1   11 S
   1   12 S
   1   20 S
   2   10 S
   2   12 S
   2   13 S
   2   14 S
   2   15 S
   2   16 S
   2   19 S
   3    8 S
   3   11 S
   3   12 S
   3   16 S
   3   17 S
   4   14 A
   4   15 A
   4   22 S
   5   16 S
   5   17 D
   5   23 S
   6   19 A
   6   20 A
   6   24 S
   7    9 A
   8    9 A
   9   25 S
  10   18 D
  11   18 S
  18   26 S
