39
   33   34   35   36   37   38
Mn   0.0000 0.0000 0.0000
Mn   5.0895 -5.9379 -1.1374
Mn   2.5448 -2.9689 -0.5687
C    4.2300 0.9792 -0.3421
C    0.3351 -3.0589 3.0594
C    0.0828 -1.8075 -3.8747
C    0.8595 -6.9171 -0.7953
C    4.7544 -2.8790 -4.1968
C    5.0067 -4.1303 2.7372
N    2.9612 1.3785 -0.2135
N    2.2501 0.2425 -0.1927
N    3.0739 -0.7844 -0.3090
N    4.3227 -0.3415 -0.4046
N    1.1391 -3.6299 2.1567
N    1.1591 -2.7593 1.1412
N    0.4190 -1.6985 1.4278
N    -0.1273 -1.8625 2.6307
N    -0.3740 -0.9271 -2.9977
N    0.1794 -1.2806 -1.8401
N    0.9313 -2.3571 -2.0276
N    0.8736 -2.7243 -3.3063
N    2.1283 -7.3163 -0.9239
N    2.8395 -6.1803 -0.9448
N    2.0156 -5.1535 -0.8284
N    0.7668 -5.5963 -0.7328
N    3.9504 -2.3080 -3.2941
N    3.9304 -3.1786 -2.2787
N    4.6705 -4.2394 -2.5653
N    5.2168 -4.0753 -3.7681
N    5.4635 -5.0108 1.8602
N    4.9101 -4.6572 0.7027
N    4.1582 -3.5808 0.8901
N    4.2159 -3.2136 2.1689
X    4.9315 1.1983 -0.8376
X    0.4188 -3.2555 3.6999
X    -0.4435 -1.7662 -4.3080
X    0.1580 -7.1362 -0.2999
X    4.6707 -2.6823 -4.8373
X    5.5330 -4.1717 3.1706
   0   10 S
   0   15 S
   0   18 S
   1   22 S
   1   27 S
   1   30 S
   2   11 S
   2   14 S
   2   19 S
   2   23 S
   2   26 S
   2   31 S
   3    9 A
   3   12 A
   3   33 S
   4   13 A
   4   16 A
   4   34 S
   5   17 A
   5   20 A
   5   35 S
   6   21 A
   6   24 A
   6   36 S
   7   25 A
   7   28 A
   7   37 S
   8   29 A
   8   32 A
   8   38 S
   9   10 A
  10   11 A
  11   12 A
  13   14 A
  14   15 A
  15   16 A
  17   18 A
  18   19 A
  19   20 A
  21   22 A
  22   23 A
  23   24 A
  25   26 A
  26   27 A
  27   28 A
  29   30 A
  30   31 A
  31   32 A
