35
   27   28   29   30   31   32   33   34
Cd   0.0000 0.0000 0.0000
Cd   -5.3479 -0.0000 -4.3741
C    -7.1987 -0.0124 -6.3821
Cd   -2.6739 0.0132 -2.1870
C    -5.3067 -1.6692 -2.1150
O    -6.2713 0.9037 -6.3764
O    -7.0922 -0.9062 -5.5415
O    -6.4669 -1.0599 -2.4294
O    -4.3197 -1.4995 -2.7892
O    -1.0608 1.5276 -1.5071
O    1.0492 1.8395 -1.1430
C    -0.0412 2.1391 -1.7198
C    -0.0412 -1.6692 -2.2591
C    -5.3067 2.1391 -2.6543
O    0.9235 0.9037 2.0023
O    1.7444 -0.9062 1.1674
C    -3.0887 -0.0167 0.9316
O    -3.4888 -0.3306 -5.6179
O    -1.8885 0.1163 -4.2040
C    1.8508 -0.0123 2.0080
O    1.1191 -1.0599 -1.9447
O    -1.0282 -1.4995 -1.5849
O    -4.2871 1.5276 -2.8669
O    -6.3971 1.8395 -3.2311
C    -2.2592 -0.0168 -5.3057
O    -1.8590 -0.3306 1.2438
O    -3.4593 0.1163 -0.1701
X    -7.9678 -0.2935 -6.4015
X    -5.0120 -1.7516 -1.5951
X    -0.2674 2.3796 -2.2709
X    -0.3358 -2.3875 -2.3785
X    -5.0804 2.9320 -2.6200
X    -3.3147 0.2084 1.4761
X    2.6198 0.2599 2.0320
X    -2.0332 -0.3442 -5.7991
   0    9 S
   0   10 S
   0   14 S
   0   15 S
   0   20 S
   0   21 S
   0   25 S
   1    5 S
   1    6 S
   1    7 S
   1    8 S
   1   17 S
   1   22 S
   1   23 S
   2    5 A
   2    6 A
   2   27 S
   3    8 S
   3    9 S
   3   18 S
   3   21 S
   3   22 S
   3   26 S
   4    7 D
   4    8 S
   4   28 S
   9   11 S
  10   11 D
  11   29 S
  12   20 D
  12   21 S
  12   30 S
  13   22 S
  13   23 D
  13   31 S
  14   19 A
  15   19 A
  16   25 A
  16   26 A
  16   32 S
  17   24 A
  18   24 A
  19   33 S
  24   34 S
