25
   20   21   22   23   24
Zn   0.0000 0.0000 0.0000
Zn   2.9292 -1.3988 0.6919
Zn   0.1594 -3.2397 0.7361
C    1.4542 -2.4259 3.1751
O    -1.7964 -2.3419 0.7622
O    -1.4587 -0.2312 1.3359
O    -0.9362 0.2353 -1.7146
O    0.9923 0.1912 -2.4650
C    2.9341 -4.2939 0.1091
C    1.8942 1.5731 1.1464
C    -2.1886 -1.2347 1.2397
O    2.3935 0.4915 1.6017
O    0.8607 1.6759 0.4118
O    1.0183 -1.6330 -0.1340
O    0.4233 -2.9833 2.6628
O    2.4684 -2.0018 2.5273
O    3.5549 -3.1864 0.0393
O    1.7553 -4.4771 0.2661
H    1.2023 -0.2636 -1.7901
C    -0.2428 -0.0223 -2.7564
X    1.5436 -2.2278 3.8806
X    3.2811 -4.8995 -0.2393
X    2.2721 2.2055 1.2838
X    -2.8255 -1.1805 1.6017
X    -0.7988 0.0045 -3.2226
   0    5 S
   0    6 S
   0   12 S
   0   13 S
   1   11 S
   1   13 S
   1   15 S
   1   16 S
   2    4 S
   2   13 S
   2   14 S
   2   17 S
   3   14 A
   3   15 A
   3   20 S
   4   10 A
   5   10 A
   6   19 A
   7   18 S
   7   19 A
   8   16 A
   8   17 A
   8   21 S
   9   11 A
   9   12 A
   9   22 S
  10   23 S
  19   24 S
