46
   40   41   42   43   44   45
O    0.0000 0.0000 0.0000
O    -0.4453 -0.4478 2.9511
O    -4.4396 -4.1367 -2.8036
O    -2.1134 -2.3184 -2.9107
O    -6.5622 -2.1677 -2.8845
O    -8.3367 0.1109 -0.3403
O    -8.1678 0.3934 2.6512
O    -1.8554 2.4230 -2.9440
O    -3.8034 4.4547 -2.5489
C    -4.3482 -0.2971 3.9245
Nd   -2.2604 -0.0730 1.1728
Nd   -4.3187 -1.9020 -1.6474
Nd   -6.2109 0.1371 1.0976
Nd   -4.0638 2.1062 -1.5163
O    -6.2638 2.7013 -2.7274
C    -1.6750 3.2369 0.8163
C    -6.3656 3.5508 0.5331
C    -4.2464 0.1779 -4.4338
O    -1.4795 -2.3581 0.8211
O    -2.8711 -3.5466 -0.4427
O    -7.1233 -2.1112 1.0757
O    -6.0047 -3.2600 -0.4427
O    -2.2904 3.2725 -0.2737
H    -4.1284 2.1489 1.4803
H    -4.3390 -2.1070 1.2923
O    -3.2123 -0.1841 3.3747
O    -5.4506 -0.2825 3.3652
H    -1.9815 -0.0105 -1.7469
H    -6.3448 0.2511 -1.8087
O    -6.8896 2.4607 0.8092
O    -4.1585 1.3845 0.8677
O    -4.2869 -1.3057 0.7306
O    -5.5617 0.1820 -1.2247
O    -2.7866 0.0209 -1.1881
O    -1.3441 2.2075 1.4208
C    -1.9503 -3.4253 0.3927
O    -5.3951 3.7412 -0.2094
C    -6.7751 -3.1804 0.5498
O    -4.1874 1.2345 -3.7620
O    -4.3309 -0.9834 -3.9578
X    -4.3343 -0.3275 4.6861
X    -1.4627 3.9086 1.1162
X    -6.6571 4.1743 0.8699
X    -4.2459 0.2469 -5.1882
X    -1.6692 -4.0781 0.6711
X    -7.0035 -3.8207 0.8639
   0   10 S
   1   10 S
   2   11 S
   3   11 S
   4   11 S
   5   12 S
   6   12 S
   7   13 S
   8   13 S
   9   25 A
   9   26 A
   9   40 S
  10   18 S
  10   25 S
  10   30 S
  10   31 S
  10   33 S
  10   34 S
  11   19 S
  11   21 S
  11   31 S
  11   32 S
  11   33 S
  11   39 S
  12   20 S
  12   26 S
  12   29 S
  12   30 S
  12   31 S
  12   32 S
  13   14 S
  13   22 S
  13   30 S
  13   32 S
  13   33 S
  13   36 S
  13   38 S
  15   22 A
  15   34 A
  15   41 S
  16   29 A
  16   36 A
  16   42 S
  17   38 A
  17   39 A
  17   43 S
  18   35 A
  19   35 A
  20   37 A
  21   37 A
  23   30 S
  24   31 S
  27   33 S
  28   32 S
  35   44 S
  37   45 S
