100
   92   93   94   95   96   97   98   99
Cu   0.0000 0.0000 0.0000
Cu   5.3616 0.0000 0.2420
Cu   2.7843 0.3065 -2.5855
Cu   2.5773 0.3065 2.8275
Cu   2.6808 -2.5354 0.1210
H    6.3463 2.7774 -0.0902
H    8.0310 3.9444 -1.1425
H    9.3549 0.5475 -2.6610
H    7.6160 -0.5305 -1.6296
H    -0.8207 -0.4983 -2.8722
H    -1.9837 -1.9892 -4.1282
H    -2.8086 -4.0088 -0.8285
H    -1.5106 -2.5311 0.3284
H    -0.9847 2.7774 0.3322
H    -2.6694 3.9444 1.3846
H    -3.9933 0.5475 2.9031
H    -2.2545 -0.5305 1.8717
H    6.1823 -0.4983 3.1143
H    7.3452 -1.9892 4.3702
H    8.1702 -4.0088 1.0706
H    6.8721 -2.5311 -0.0864
H    5.2238 4.7098 -3.2985
H    3.6510 3.3078 -2.4289
H    5.1373 0.3088 -4.3299
H    6.7583 1.6122 -5.2109
H    -0.3090 -6.4148 -0.4137
H    0.9929 -4.9220 0.6272
H    1.7895 -3.1297 -2.7010
H    0.5746 -4.6624 -3.8789
H    0.1378 4.7098 3.5405
H    1.7106 3.3078 2.6709
H    0.2243 0.3088 4.5719
H    -1.3967 1.6122 5.4530
H    5.6706 -6.4148 0.6557
H    4.3687 -4.9220 -0.3851
H    3.5721 -3.1297 2.9430
H    4.7870 -4.6624 4.1209
W    2.6808 0.1680 0.1210
C    6.9548 2.3132 -0.6173
C    7.9838 3.0199 -1.2396
C    8.9190 2.3700 -1.9855
C    8.7582 1.0325 -2.1358
C    7.7085 0.3884 -1.5117
C    -1.2191 -1.2239 -2.4498
C    -1.9288 -2.1086 -3.2072
C    -2.5572 -3.1601 -2.6211
C    -2.4004 -3.3021 -1.2738
C    -1.6348 -2.3985 -0.5830
C    -1.5932 2.3132 0.8594
C    -2.6222 3.0199 1.4816
C    -3.5574 2.3700 2.2275
C    -3.3966 1.0325 2.3779
C    -2.3469 0.3884 1.7537
C    6.5807 -1.2239 2.6918
C    7.2904 -2.1086 3.4492
C    7.9188 -3.1601 2.8631
C    7.7620 -3.3021 1.5159
C    6.9964 -2.3985 0.8251
C    6.1730 3.3249 -4.3679
C    5.2325 3.8080 -3.5230
C    4.2897 2.9536 -3.0035
C    5.1579 1.2106 -4.1053
C    6.1241 1.9911 -4.6457
C    -0.0419 -5.7442 -2.2633
C    0.1239 -5.7631 -0.9161
C    0.8990 -4.8651 -0.2957
C    1.3798 -3.8212 -2.2367
C    0.6321 -4.7268 -2.9522
C    -0.8114 3.3249 4.6100
C    0.1291 3.8080 3.7651
C    1.0718 2.9536 3.2456
C    0.2037 1.2106 4.3474
C    -0.7625 1.9911 4.8878
C    5.4035 -5.7442 2.5054
C    5.2377 -5.7631 1.1581
C    4.4626 -4.8651 0.5378
C    3.9818 -3.8212 2.4787
C    4.7295 -4.7268 3.1942
S    1.3681 1.4199 -1.1615
S    3.9636 -1.1492 -1.1853
S    3.9935 1.4199 1.4036
S    1.3979 -1.1492 1.4274
I    1.9048 -0.7375 -4.7312
I    3.4568 -0.7375 4.9732
N    6.8193 1.0268 -0.7486
N    -1.0705 -1.3508 -1.1425
N    -1.4577 1.0268 0.9907
N    6.4321 -1.3508 1.3846
N    4.2367 1.6804 -3.2680
N    1.5489 -3.8781 -0.9484
N    1.1248 1.6804 3.5101
N    3.8127 -3.8781 1.1905
X    9.4126 2.7291 -2.4363
X    -3.0399 -3.6432 -2.8416
X    -4.0510 2.7291 2.6783
X    8.4015 -3.6432 3.0837
X    6.6532 3.7521 -4.7936
X    -0.5444 -6.2169 -2.4597
X    -1.2917 3.7521 5.0357
X    5.9060 -6.2169 2.7017
   0   37 S
   0   78 S
   0   81 S
   0   85 S
   0   86 S
   1   37 S
   1   79 S
   1   80 S
   1   84 S
   1   87 S
   2   37 S
   2   78 S
   2   79 S
   2   82 S
   2   88 S
   3   37 S
   3   80 S
   3   81 S
   3   83 S
   3   90 S
   4   37 S
   4   79 S
   4   81 S
   4   89 S
   4   91 S
   5   38 S
   6   39 S
   7   41 S
   8   42 S
   9   43 S
  10   44 S
  11   46 S
  12   47 S
  13   48 S
  14   49 S
  15   51 S
  16   52 S
  17   53 S
  18   54 S
  19   56 S
  20   57 S
  21   59 S
  22   60 S
  23   61 S
  24   62 S
  25   64 S
  26   65 S
  27   66 S
  28   67 S
  29   69 S
  30   70 S
  31   71 S
  32   72 S
  33   74 S
  34   75 S
  35   76 S
  36   77 S
  37   78 S
  37   79 S
  37   80 S
  37   81 S
  38   39 A
  38   84 A
  39   40 A
  40   41 A
  40   92 S
  41   42 A
  42   84 A
  43   44 A
  43   85 A
  44   45 A
  45   46 A
  45   93 S
  46   47 A
  47   85 A
  48   49 A
  48   86 A
  49   50 A
  50   51 A
  50   94 S
  51   52 A
  52   86 A
  53   54 A
  53   87 A
  54   55 A
  55   56 A
  55   95 S
  56   57 A
  57   87 A
  58   59 A
  58   62 A
  58   96 S
  59   60 A
  60   88 A
  61   62 A
  61   88 A
  63   64 A
  63   67 A
  63   97 S
  64   65 A
  65   89 A
  66   67 A
  66   89 A
  68   69 A
  68   72 A
  68   98 S
  69   70 A
  70   90 A
  71   72 A
  71   90 A
  73   74 A
  73   77 A
  73   99 S
  74   75 A
  75   91 A
  76   77 A
  76   91 A
