27
   23   24   25   26
N    0.0000 0.0000 0.0000
N    -1.5842 0.3451 -1.4752
O    -4.4818 -1.8496 -3.4469
O    -3.0104 -2.1450 -1.8934
Co   -2.9767 -0.3108 -2.8800
O    -4.4818 1.2279 -2.3132
O    -3.0104 1.5233 -3.8667
H    -1.4262 0.7169 -5.3087
H    -0.9083 -2.8430 -3.8695
H    0.8446 -2.4863 -5.4992
H    -1.4262 -1.3386 -0.4513
H    -0.9083 2.2213 -1.8906
H    0.8446 1.8646 -0.2609
C    -3.9054 -2.6037 -2.6401
C    -1.0769 -0.1296 -5.1429
C    -0.7901 -2.0673 -4.3686
C    0.1793 -1.8814 -5.2611
C    -3.9054 1.9820 -3.1199
C    -1.0770 -0.4921 -0.6171
C    -0.7901 1.4456 -1.3914
C    0.1793 1.2597 -0.4990
N    0.0000 -0.6217 -5.7600
N    -1.5842 -0.9668 -4.2848
X    0.3124 -0.3830 0.5325
X    -4.4025 -3.0670 -2.3154
X    -3.7244 2.6035 -3.4446
X    0.5284 -0.6590 -6.2925
   0   18 A
   0   20 A
   0   23 S
   1    4 S
   1   18 A
   1   19 A
   2    4 S
   2   13 A
   3    4 S
   3   13 A
   4    5 S
   4    6 S
   4   22 S
   5   17 A
   6   17 A
   7   14 S
   8   15 S
   9   16 S
  10   18 S
  11   19 S
  12   20 S
  13   24 S
  14   21 A
  14   22 A
  15   16 A
  15   22 A
  16   21 A
  17   25 S
  19   20 A
  21   26 S
