41
   35   36   37   38   39   40
C    0.0000 0.0000 0.0000
Zn   -4.2997 -0.3906 4.3157
C    -3.7828 -3.0004 1.1473
C    -4.2518 -4.0121 0.2577
Zn   -0.8975 -2.7720 0.2459
C    -5.5891 -4.3650 0.3522
Zn   -0.8014 -0.3060 3.0370
C    -6.9049 -0.8651 5.3317
N    -3.8263 -1.5306 2.7925
N    -2.5422 -2.4294 1.2564
H    -6.4627 -2.4727 2.9627
H    -7.3507 -4.0038 1.4418
N    -2.5916 -1.5611 2.2748
O    -1.2572 -0.8483 5.0360
O    -3.3437 -1.1388 5.8534
O    -1.4494 -5.7093 -0.7128
H    -3.6854 -4.4166 -0.3595
H    -5.9450 -4.9878 -0.2398
O    -0.9953 -3.6544 -1.4603
C    -2.0737 -0.9568 5.9670
O    -1.8333 1.5149 3.0942
O    -3.9675 1.3912 3.6555
O    0.4323 -2.0309 3.0150
O    0.3049 -3.6926 1.4890
O    -0.2072 0.3767 1.1491
O    -0.4795 -1.0502 -0.5169
O    -6.6668 -2.0576 5.5282
O    -6.1511 -0.0458 4.7069
C    -1.1140 -4.9184 -1.5954
O    0.9039 0.7370 3.8523
C    -2.8897 2.0226 3.4566
C    -4.5804 -2.4421 2.1015
C    -5.9418 -2.8292 2.2794
C    -6.4552 -3.7588 1.3882
C    0.8855 -3.0281 2.4272
X    0.7605 0.5099 0.1349
X    -7.5806 -0.4637 5.4304
X    -2.2778 -1.3951 6.3433
X    -0.6584 -4.9043 -2.0667
X    -2.6776 2.7202 3.8679
X    1.1990 -3.6436 2.5426
   0   24 A
   0   25 A
   0   35 S
   1    8 S
   1   14 S
   1   21 S
   1   27 S
   2    3 A
   2    9 A
   2   31 A
   3    5 A
   3   16 S
   4    9 S
   4   18 S
   4   23 S
   4   25 S
   5   17 S
   5   33 A
   6   12 S
   6   13 S
   6   20 S
   6   22 S
   6   24 S
   6   29 S
   7   26 D
   7   27 S
   7   36 S
   8   12 A
   8   31 A
   9   12 A
  10   32 S
  11   33 S
  13   19 D
  14   19 S
  14   37 S
  15   28 D
  18   28 S
  19   37 S
  20   30 A
  21   30 A
  22   34 A
  23   34 A
  28   38 S
  30   39 S
  31   32 A
  32   33 A
  34   40 S
