38
   32   33   34   35   36   37
Cu   0.0000 0.0000 0.0000
Cu   -1.9429 1.6709 -0.6785
H    -2.0182 4.5544 -1.0361
H    -5.4593 6.0254 -2.4215
H    -5.0996 2.0813 -1.6836
H    0.0753 -2.8836 0.3576
H    3.5164 -4.3545 1.7430
H    3.1567 -0.4104 1.0051
C    -2.8949 4.4189 -1.3140
C    -4.9539 5.2992 -2.1354
C    -5.5250 4.0185 -2.1230
C    -4.7393 2.9393 -1.6987
C    0.7618 2.1124 -1.7096
C    -1.5918 -0.6479 -2.3092
C    0.9520 -2.7480 0.6355
C    3.0111 -3.6284 1.4569
C    3.5822 -2.3477 1.4446
C    2.7964 -1.2684 1.0202
C    -2.7047 -0.4415 1.0311
C    -0.3511 2.3188 1.6308
N    -3.4267 3.1457 -1.3016
N    -3.6523 5.4932 -1.7315
N    1.4838 -1.4748 0.6232
N    1.7094 -3.8223 1.0530
O    -0.4536 2.5028 -1.7191
O    1.1899 1.0729 -1.1401
O    -0.6072 -1.0321 -1.5953
O    -2.2511 0.3915 -2.1521
O    -1.4893 -0.8320 1.0406
O    -3.1328 0.5980 0.4616
O    -1.3357 2.7030 0.9168
O    0.3082 1.2793 1.4736
X    -6.3072 3.9477 -2.0669
X    1.1387 2.5358 -2.2311
X    -1.9763 -1.0931 -2.7328
X    4.3643 -2.2768 1.3884
X    -3.0816 -0.8649 1.5526
X    0.0335 2.7640 2.0543
   0    1 S
   0   22 S
   0   25 S
   0   26 S
   0   28 S
   0   31 S
   1   20 S
   1   24 S
   1   27 S
   1   29 S
   1   30 S
   2    8 S
   3    9 S
   4   11 S
   5   14 S
   6   15 S
   7   17 S
   8   20 A
   8   21 A
   9   10 A
   9   21 A
  10   11 A
  10   32 S
  11   20 A
  12   24 A
  12   25 A
  12   33 S
  13   26 A
  13   27 A
  13   34 S
  14   22 A
  14   23 A
  15   16 A
  15   23 A
  16   17 A
  16   35 S
  17   22 A
  18   28 A
  18   29 A
  18   36 S
  19   30 A
  19   31 A
  19   37 S
  32   10 S
  35   16 S
