26
   20   21   22   23   24   25
Zn   0.0000 0.0000 0.0000
Zn   -1.5929 3.9757 0.4153
C    -0.8131 -2.2793 -1.1403
C    -2.4249 1.3317 1.2981
C    1.8155 -0.8504 1.4114
C    -0.7798 6.2550 1.5556
C    0.8320 2.6440 -0.8828
C    -3.4084 4.8261 -0.9961
O    -0.9862 -2.5361 0.0480
O    -0.3853 -1.1573 -1.5458
O    -1.7652 0.7734 0.3813
O    -2.5845 2.5765 1.3831
O    2.1914 -1.2445 0.3094
O    0.9694 -0.3119 1.7488
O    -0.6067 6.5118 0.3673
O    -1.2076 5.1330 1.9612
O    0.1723 3.2023 0.0340
O    0.9916 1.3992 -0.9678
O    -3.7842 5.2203 0.1060
O    -2.5622 4.2876 -1.3334
X    -0.8486 -2.5905 -1.7890
X    -2.8795 0.7209 1.4825
X    2.1684 -1.1645 2.0446
X    -0.7443 6.5663 2.2044
X    1.2866 3.2548 -1.0672
X    -3.7613 5.1402 -1.6293
   0    9 S
   0   10 S
   0   13 S
   0   17 S
   1   11 S
   1   15 S
   1   16 S
   1   19 S
   2    8 D
   2    9 S
   2   20 S
   3   10 A
   3   11 A
   3   21 S
   4   12 D
   4   13 S
   4   22 S
   5   14 D
   5   15 S
   5   23 S
   6   16 A
   6   17 A
   6   24 S
   7   18 D
   7   19 S
   7   25 S
