18
   14   15   16   17
O    0.0000 0.0000 0.0000
O    -1.9373 2.3292 0.0809
O    -3.3526 1.8789 -1.6091
O    -1.5056 -0.8180 -1.4689
C    -0.0421 1.5906 -3.4394
O    -0.9340 0.9721 -4.1064
Co   -2.2458 0.6156 -2.6215
C    -0.7310 -0.9075 -0.4688
O    -0.2873 1.9541 -2.2629
Co   0.0910 2.0540 -0.1928
O    -3.6159 -0.6187 -3.3611
C    -4.5589 -0.1849 -4.1038
C    -3.0202 2.4635 -0.5308
O    -4.6642 1.0005 -4.4843
X    0.6234 1.7228 -3.7595
X    -0.7092 -1.5799 -0.1339
X    -5.0786 -0.7008 -4.2955
X    -3.5384 2.9162 -0.2227
   0    7 A
   0    9 S
   1    9 S
   1   12 A
   2    6 S
   2   12 A
   3    6 S
   3    7 A
   4    5 D
   4    8 S
   4   14 S
   5    6 S
   6    8 S
   6   10 S
   7   15 S
   8    9 S
  10   11 S
  11   13 D
  11   16 S
  12   17 S
