31
   25   26   27   28   29   30
Cu   0.0000 0.0000 0.0000
H    -3.4866 -4.4257 1.1617
H    0.1792 -2.9290 0.2917
H    -2.8193 -0.4306 0.8336
H    3.4866 4.4257 -1.1617
H    -0.1792 2.9290 -0.2917
H    2.8193 0.4306 -0.8336
C    1.6720 -0.5492 1.9125
C    -3.3746 -2.3778 1.0739
C    -2.9092 -3.6875 1.0088
C    -1.5535 -3.8711 0.7085
C    -0.7415 -2.7845 0.4773
C    -2.4913 -1.3219 0.8034
C    -1.6720 0.5492 -1.9125
C    3.3746 2.3778 -1.0739
C    2.9092 3.6875 -1.0088
C    1.5535 3.8711 -0.7085
C    0.7415 2.7845 -0.4773
C    2.4913 1.3219 -0.8034
N    -1.2093 -1.5269 0.5056
N    1.2093 1.5269 -0.5056
O    1.5342 -0.9562 0.6985
O    0.8784 0.2110 2.4719
O    -1.5342 0.9562 -0.6985
O    -0.8784 -0.2110 -2.4719
X    2.3164 -0.7929 2.1945
X    -3.9944 -2.1868 1.2859
X    -1.2788 -4.5604 0.6133
X    -2.3164 0.7929 -2.1945
X    3.9944 2.1868 -1.2859
X    1.2788 4.5606 -0.6133
   0   19 S
   0   20 S
   0   21 S
   0   23 S
   1    9 S
   2   11 S
   3   12 S
   4   15 S
   5   17 S
   6   18 S
   7   21 S
   7   22 D
   7   25 S
   8    9 A
   8   12 A
   8   26 S
   9   10 A
  10   11 A
  10   27 S
  11   19 A
  12   19 A
  13   23 S
  13   24 D
  13   28 S
  14   15 A
  14   18 A
  14   29 S
  15   16 A
  16   17 A
  16   30 S
  17   20 A
  18   20 A
