26
   22   23   24   25
O    0.0000 0.0000 0.0000
C    2.1784 2.7446 -1.2446
C    1.7784 2.7801 -2.5666
C    0.8704 1.8584 -3.0403
C    0.2661 0.9753 -2.1665
C    0.6260 0.9731 -0.8219
C    1.5850 1.8465 -0.3573
C    0.3392 -0.0320 1.3157
C    -0.2568 -1.0160 2.1296
C    -1.0814 -1.9542 1.6171
C    -1.6298 -2.9193 2.4527
C    -1.3372 -2.9529 3.8011
C    -0.4856 -2.0100 4.3116
C    0.0600 -1.0332 3.4897
H    2.1310 3.4417 -3.1510
H    -0.3936 0.3704 -2.4829
H    1.8405 1.8362 0.5569
H    1.3213 -0.1476 1.3742
H    0.1256 0.8530 1.7040
H    -1.2857 -1.9546 0.6888
H    -1.7186 -3.6172 4.3623
H    0.6466 -0.3798 3.8519
X    2.7204 3.2595 -1.1726
X    0.6944 1.6542 -3.6970
X    -2.1137 -3.5044 2.3541
X    -0.3349 -1.7896 4.9714
   0    5 S
   0    7 S
   1    2 A
   1    6 A
   1   22 S
   2    3 A
   2   14 S
   3    4 A
   3   23 S
   4    5 A
   4   15 S
   5    6 A
   6   16 S
   7    8 S
   7   17 S
   7   18 S
   8    9 A
   8   13 A
   9   10 A
   9   19 S
  10   11 A
  10   24 S
  11   12 A
  11   20 S
  12   13 A
  12   25 S
  13   21 S
