13
   10   11   12
C    0.0000 0.0000 0.0000
C    -2.4465 -1.6444 -2.9005
O    -0.9086 -0.6729 0.5432
O    0.6749 -0.4169 -0.9589
C    -0.1656 -4.3067 -0.6874
Zn   0.2205 -1.9436 -2.0461
O    0.5963 -3.7793 -1.5254
O    -1.1475 -3.7444 -0.1832
O    -2.7853 -1.6444 -1.6959
O    -1.2621 -1.7025 -3.2733
X    0.2105 0.6738 0.1993
X    -3.0868 -1.5755 -3.2056
X    0.0014 -5.0271 -0.5605
   0    2 D
   0    3 S
   0   10 S
   1    8 D
   1    9 S
   1   11 S
   3    5 S
   4    6 S
   4    7 D
   4   12 S
   5    6 S
   5    9 S
