31
   27   28   29   30
C    0.0000 0.0000 0.0000
C    2.2004 3.4366 -0.0499
C    1.5863 -0.4633 3.3945
C    2.1478 -1.1749 4.4427
C    3.4086 -0.9916 4.7535
C    4.1478 -0.0606 4.0080
C    3.5085 0.6423 2.9983
C    0.7787 3.2750 3.9275
C    0.0843 3.9202 4.9403
C    -1.3209 4.1107 4.8389
C    -1.8973 3.6589 3.6698
C    -1.2031 3.0210 2.7053
N    2.2140 0.4922 2.7036
N    0.1512 2.8304 2.7938
O    -0.5697 0.5557 0.9581
O    1.1718 0.2641 -0.3253
O    0.9482 3.2519 -0.2480
O    2.8115 2.8983 0.8631
Zn   1.1636 1.6887 1.3586
H    0.7108 -0.6654 3.1545
H    1.6326 -1.7811 4.9258
H    5.0494 0.0808 4.1867
H    4.0068 1.2514 2.5024
H    1.6934 3.1393 4.0192
H    0.5411 4.2290 5.6891
H    -2.8080 3.8004 3.5410
H    -1.6567 2.7020 1.9581
X    -0.4009 -0.5066 -0.3989
X    2.5365 3.9093 -0.5431
X    3.8050 -1.3221 5.2833
X    -1.6988 4.3864 5.4005
   0   14 A
   0   15 A
   0   27 S
   1   16 A
   1   17 A
   1   28 S
   2    3 A
   2   12 A
   2   19 S
   3    4 A
   3   20 S
   4    5 A
   4   29 S
   5    6 A
   5   21 S
   6   12 A
   6   22 S
   7    8 A
   7   13 A
   7   23 S
   8    9 A
   8   24 S
   9   10 A
   9   30 S
  10   11 A
  10   25 S
  11   13 A
  11   26 S
  12   18 S
  13   18 S
  14   18 S
  15   18 S
  16   18 S
  17   18 S
