102
   94   95   96   97   98   99  100  101
H    0.0000 0.0000 0.0000
H    0.0787 -1.7293 -1.5638
H    -2.4780 -1.8790 2.4286
H    -8.3441 -4.9738 -6.2182
H    -6.0818 -4.6406 -6.6792
H    -9.1538 -1.1343 -5.8033
H    1.3800 -0.8229 -10.8431
H    -0.1788 -1.5757 -9.2793
H    0.9049 -3.8962 -13.2717
H    0.9705 -10.5284 -4.6249
H    0.1883 -8.3795 -4.1639
H    4.7334 -9.4155 -5.0398
H    -2.9968 -8.1625 -10.8431
H    -3.0755 -6.4333 -9.2793
H    -0.5188 -6.2835 -13.2717
H    5.3473 -3.1887 -4.6249
H    3.0850 -3.5219 -4.1639
H    6.1570 -7.0282 -5.0398
H    -4.3768 -7.3397 0.0000
H    -2.8180 -6.5868 -1.5638
H    -3.9017 -4.2663 2.4286
H    -3.9673 2.3658 -6.2182
H    -3.1851 0.2170 -6.6792
H    -7.7302 1.2530 -5.8033
H    -2.4078 -3.5390 -3.4502
H    -3.3820 -2.9580 -4.9771
H    -0.5890 -4.6236 -7.3928
H    0.3852 -5.2045 -5.8660
H    0.7924 -5.4473 -1.8312
H    -3.7892 -2.7152 -9.0119
C    -1.2197 -0.6876 1.3923
C    -0.5215 -0.7696 0.1973
C    -0.4397 -1.7759 -0.7671
C    -1.2330 -2.8567 -0.3946
C    -1.9948 -2.9240 0.7727
C    -1.9632 -1.8356 1.6302
C    -9.0391 -3.1445 -5.9545
C    -8.0444 -4.0720 -6.2237
C    -6.6849 -3.9252 -6.5059
C    -6.3393 -2.5773 -6.4911
C    -7.2235 -1.5285 -6.2348
C    -8.5472 -1.8465 -5.9748
C    1.3549 -2.2228 -12.2354
C    0.9508 -1.6475 -11.0404
C    0.0266 -2.0539 -10.0760
C    -0.5472 -3.2657 -10.4485
C    -0.2443 -3.9679 -11.6158
C    0.6983 -3.4226 -12.4732
C    2.9103 -10.2702 -4.8886
C    1.6214 -9.8360 -4.6194
C    1.1043 -8.5701 -4.3372
C    2.1259 -7.6253 -4.3520
C    3.4689 -7.9046 -4.6083
C    3.8185 -9.2204 -4.8683
C    -1.7771 -7.4750 -12.2354
C    -2.4753 -7.3929 -11.0404
C    -2.5571 -6.3867 -10.0760
C    -1.7638 -5.3058 -10.4485
C    -1.0020 -5.2385 -11.6158
C    -1.0336 -6.3269 -12.4732
C    6.0423 -5.0180 -4.8886
C    5.0476 -4.0905 -4.6194
C    3.6881 -4.2373 -4.3372
C    3.3425 -5.5852 -4.3520
C    4.2267 -6.6340 -4.6083
C    5.5504 -6.3161 -4.8683
C    -4.3517 -5.9398 1.3923
C    -3.9476 -6.5150 0.1973
C    -3.0234 -6.1086 -0.7671
C    -2.4496 -4.8969 -0.3946
C    -2.7525 -4.1946 0.7727
C    -3.6951 -4.7399 1.6302
C    -5.9071 2.1077 -5.9545
C    -4.6183 1.6734 -6.2237
C    -4.1011 0.4076 -6.5059
C    -5.1227 -0.5372 -6.4911
C    -6.4658 -0.2579 -6.2348
C    -6.8153 1.0578 -5.9748
C    -0.8813 -4.4493 -2.4469
C    -1.5968 -4.0226 -3.5622
C    -3.7662 -2.7289 -6.9685
C    -3.0558 -3.1526 -5.8488
C    -2.1155 -3.7132 -8.3962
C    -1.4000 -4.1399 -7.2809
C    0.7694 -5.4336 -3.8746
C    0.0590 -5.0099 -4.9943
C    0.3064 -5.1575 -2.5928
C    -1.1290 -4.3016 -4.8425
C    -3.3032 -3.0050 -8.2503
C    -1.8678 -3.8610 -6.0006
N    -1.4520 -4.1089 -1.0862
N    -5.0499 -1.9634 -6.7253
N    -1.5448 -4.0536 -9.7569
N    2.0531 -6.1991 -4.1178
X    -0.5111 -0.2697 1.1549
X    -9.7478 -3.0375 -5.4132
X    1.7653 -2.1880 -12.8800
X    2.5000 -10.8298 -4.5478
X    -2.4857 -7.8928 -11.9980
X    6.7510 -5.1250 -5.4298
X    -4.7621 -5.9745 2.0370
X    -5.4968 2.6672 -6.2953
   0   31 S
   1   32 S
   2   35 S
   3   37 S
   4   38 S
   5   41 S
   6   43 S
   7   44 S
   8   47 S
   9   49 S
  10   50 S
  11   53 S
  12   55 S
  13   56 S
  14   59 S
  15   61 S
  16   62 S
  17   65 S
  18   67 S
  19   68 S
  20   71 S
  21   73 S
  22   74 S
  23   77 S
  24   79 S
  25   81 S
  26   83 S
  27   85 S
  28   86 S
  29   88 S
  30   31 A
  30   35 A
  30   94 S
  31   32 A
  32   33 A
  33   34 A
  33   90 A
  34   35 A
  34   70 A
  36   37 A
  36   41 A
  36   95 S
  37   38 A
  38   39 A
  39   40 A
  39   91 A
  40   41 A
  40   76 A
  42   43 A
  42   47 A
  42   96 S
  43   44 A
  44   45 A
  45   46 A
  45   92 A
  46   47 A
  46   58 A
  48   49 A
  48   53 A
  48   97 S
  49   50 A
  50   51 A
  51   52 A
  51   93 A
  52   53 A
  52   64 A
  54   55 A
  54   59 A
  54   98 S
  55   56 A
  56   57 A
  57   58 A
  57   92 A
  58   59 A
  60   61 A
  60   65 A
  60   99 S
  61   62 A
  62   63 A
  63   64 A
  63   93 A
  64   65 A
  66   67 A
  66   71 A
  66  100 S
  67   68 A
  68   69 A
  69   70 A
  69   90 A
  70   71 A
  72   73 A
  72   77 A
  72  101 S
  73   74 A
  74   75 A
  75   76 A
  75   91 A
  76   77 A
  78   79 A
  78   86 A
  78   90 S
  79   87 A
  80   81 A
  80   88 A
  80   91 S
  81   89 A
  82   83 A
  82   88 A
  82   92 S
  83   89 A
  84   85 A
  84   86 A
  84   93 S
  85   87 A
  87   89 S
