40
   34   35   36   37   38   39
C    0.0000 0.0000 0.0000
C    0.0385 -0.0353 -1.3796
C    -0.5739 -1.1115 -2.0136
C    -1.1684 -2.1105 -1.2814
C    -1.1665 -2.0066 0.1040
N    -0.8990 -1.2148 7.6750
N    -0.5903 -0.9585 0.7255
O    -1.1339 0.8264 5.3354
O    -1.0040 1.0526 3.1164
O    1.0361 -1.0461 5.4314
O    1.2777 -0.6826 3.2370
O    -0.8422 -3.1788 5.2260
O    -0.4569 -2.9029 3.0450
O    -2.9238 -1.2867 5.1747
O    -2.6874 -1.1847 2.9736
Zn   -0.9633 -1.1846 5.6440
Zn   -0.6729 -0.8970 2.7481
H    -0.2321 0.6329 7.8826
H    -0.1241 0.6381 10.2244
H    -1.4393 -3.2062 10.1820
H    -1.4884 -3.0964 7.8424
H    0.4070 0.7309 0.4509
H    0.4693 0.6486 -1.8797
H    -1.5716 -2.8545 -1.7123
H    -1.5788 -2.6871 0.6228
C    -1.1886 1.5064 4.2683
C    1.7220 -0.8591 4.3844
C    -0.6103 -3.6064 4.0674
C    -3.3628 -1.1991 4.0228
C    -0.4818 -0.1478 8.3603
C    -0.3991 -0.1373 9.7511
C    -0.7357 -1.3024 10.4097
C    -1.1762 -2.4151 9.7243
C    -1.2203 -2.3315 8.3380
X    -0.5785 -1.1562 -2.7313
X    -1.2761 2.2484 4.3454
X    2.4699 -0.9285 4.4760
X    -0.6299 -4.3487 3.9793
X    -4.1054 -1.0877 3.9447
X    -0.7186 -1.3157 11.1408
   0    1 A
   0    6 A
   0   21 S
   1    2 A
   1   22 S
   2    3 A
   2   34 S
   3    4 A
   3   23 S
   4    6 A
   4   24 S
   5   15 S
   5   29 A
   5   33 A
   6   16 S
   7   15 S
   7   25 A
   8   16 S
   8   25 A
   9   15 S
   9   26 A
  10   16 S
  10   26 A
  11   15 S
  11   27 A
  12   16 S
  12   27 A
  13   15 S
  13   28 A
  14   16 S
  14   28 A
  15   16 S
  17   29 S
  18   30 S
  19   32 S
  20   33 S
  25   35 S
  26   36 S
  27   37 S
  28   38 S
  29   30 A
  30   31 A
  31   32 A
  31   39 S
  32   33 A
