40
   36   37   38   39
H    0.0000 0.0000 0.0000
H    0.7875 -0.2188 -2.0572
H    0.1602 1.4277 -3.6559
N    -0.9258 2.5139 -2.4850
N    -1.9365 7.7250 -7.0466
C    -3.9542 5.0774 -4.4659
H    -3.4987 8.4086 -6.1876
H    -4.1250 10.0096 -7.8209
H    -2.7077 10.1431 -9.6753
H    -0.9733 8.7982 -9.9633
H    -0.4896 7.2408 -8.2310
Cu   -1.3082 4.1101 -3.8814
O    -3.2812 4.1840 -3.9109
Cu   -1.6195 6.1694 -5.5894
O    -3.5121 6.0069 -5.1800
O    0.3301 6.0930 -5.7368
O    0.6033 4.5932 -4.1187
C    1.0488 5.4543 -4.8999
O    -1.4173 7.1935 -3.9132
O    -1.3475 5.4704 -2.4944
C    -1.3148 2.6290 -1.2555
C    -1.0076 1.7164 -0.2027
O    -1.3601 3.0098 -5.4986
O    -1.9014 4.6758 -6.8674
C    -0.1543 1.5017 -2.7851
C    0.2391 0.4978 -1.8245
C    -0.2145 0.6512 -0.6289
C    -1.3765 6.6921 -2.7704
C    -1.7796 3.4630 -6.6138
C    -2.9735 8.4941 -6.9501
C    -3.3749 9.4650 -7.9154
C    -2.5230 9.5103 -9.0188
C    -1.5000 8.7482 -9.1962
C    -1.2157 7.8119 -8.1342
H    -1.8400 3.3658 -1.0413
H    -1.3028 1.8201 0.6750
X    -4.5964 5.4248 -4.0722
X    1.8514 5.2771 -5.3235
X    -0.7343 7.1247 -2.7439
X    -2.5818 3.1036 -6.4795
   0   26 S
   1   25 S
   2   24 S
   3   11 S
   3   20 A
   3   24 A
   4   13 S
   4   29 A
   4   33 A
   5   12 A
   5   14 A
   5   36 S
   6   29 S
   7   30 S
   8   31 S
   9   32 S
  10   33 S
  11   12 S
  11   13 S
  11   16 S
  11   19 S
  11   22 S
  13   14 S
  13   15 S
  13   18 S
  13   23 S
  15   17 A
  16   17 A
  17   37 S
  18   27 A
  19   27 A
  20   21 A
  20   34 S
  21   26 A
  21   35 S
  22   28 A
  23   28 A
  24   25 A
  25   26 A
  27   38 S
  28   39 S
  29   30 A
  30   31 A
  31   32 A
  32   33 A
