52
   48   49   50   51
H    0.0000 0.0000 0.0000
H    -4.1213 1.5768 1.5185
H    -3.2890 2.9033 1.4269
H    -2.3473 0.4950 2.6093
H    -1.5236 1.8338 2.6459
H    -2.2821 0.5388 0.2433
H    -1.4205 1.8485 0.3008
H    0.5331 1.0681 2.4628
H    1.5494 0.2232 1.6166
H    -2.3367 2.9353 4.3631
H    -3.5800 3.6981 4.9347
H    -3.6654 0.8118 4.2559
H    -4.6970 1.7088 5.0249
H    -1.5634 -1.4128 1.2987
H    -0.4761 -1.1387 2.4000
H    -1.8779 5.5526 4.9465
H    2.2434 3.9758 3.4280
H    1.4111 2.6493 3.5196
H    0.4694 5.0576 2.3372
H    -0.3543 3.7188 2.3006
H    0.4042 5.0138 4.7032
H    -0.4573 3.7042 4.6457
H    -2.4110 4.4846 2.4837
H    -3.4273 5.3295 3.3299
H    0.4589 2.6173 0.5833
H    1.7021 1.8545 0.0118
H    1.7875 4.7408 0.6906
H    2.8191 3.8438 -0.0785
H    -0.3145 6.9654 3.6477
H    -1.4018 6.6914 2.5465
C    -3.4635 2.1218 1.9775
C    -2.1691 1.3219 2.1332
C    -1.6131 1.0152 0.7586
C    0.8050 0.8432 1.5603
C    -3.1247 3.4461 4.1173
C    -4.4314 1.3976 4.1460
C    -0.6337 -1.1756 1.4426
C    1.5856 3.4309 2.9689
C    0.2913 4.2307 2.8133
C    -0.2648 4.5374 4.1879
C    -2.6829 4.7094 3.3861
C    1.2468 2.1065 0.8292
C    2.5535 4.1550 0.8004
C    -1.2441 6.7282 3.5039
N    -4.0319 2.5720 3.3090
N    -0.3544 0.1839 0.8266
N    2.1541 2.9807 1.6375
N    -1.5235 5.3688 4.1199
X    -4.9889 0.8485 4.0252
X    -0.1573 -1.7093 1.2055
X    3.1110 4.7041 0.9213
X    -1.7205 7.2619 3.7410
   0   45 S
   1   30 S
   2   30 S
   3   31 S
   4   31 S
   5   32 S
   6   32 S
   7   33 S
   8   33 S
   9   34 S
  10   34 S
  11   35 S
  12   35 S
  13   36 S
  14   36 S
  15   47 S
  16   37 S
  17   37 S
  18   38 S
  19   38 S
  20   39 S
  21   39 S
  22   40 S
  23   40 S
  24   41 S
  25   41 S
  26   42 S
  27   42 S
  28   43 S
  29   43 S
  30   31 S
  30   44 S
  31   32 S
  32   45 S
  33   41 S
  33   45 S
  34   40 S
  34   44 S
  35   44 S
  35   48 S
  36   45 S
  36   49 S
  37   38 S
  37   46 S
  38   39 S
  39   47 S
  40   47 S
  41   46 S
  42   46 S
  42   50 S
  43   47 S
  43   51 S
