45
   41   42   43   44
Cu   0.0000 0.0000 0.0000
H    -3.4596 -1.7827 3.2041
H    -1.8134 -0.3536 2.4374
H    -1.0342 -2.6746 -0.5777
H    -2.5673 -4.1970 0.1267
H    1.5266 2.3967 4.0610
H    0.6929 0.6966 2.8691
H    -0.4030 3.0339 -0.0515
H    0.2600 4.8209 1.1811
C    4.6624 -0.6926 -0.9541
C    3.8021 -1.7431 -1.0656
C    2.4808 -1.5378 -0.7192
C    2.8620 0.6681 -0.2362
C    4.1951 0.4869 -0.5910
C    -1.5583 1.8784 -4.1052
C    -2.3568 1.9997 -3.0009
C    -1.9049 1.4443 -1.8900
C    -0.0200 0.6405 -2.8710
C    -0.4087 1.1760 -4.1037
H    4.0981 -2.5810 -1.3701
H    1.9048 -2.2796 -0.7645
H    2.5763 1.5101 0.0687
H    4.7782 1.2235 -0.5712
N    -1.2382 -1.3391 0.8435
N    0.0883 1.6759 1.2771
H    -3.1808 2.4530 -3.0302
H    -2.4177 1.5613 -1.1103
H    0.8075 0.2015 -2.8068
N    1.9473 -0.3730 -0.3251
H    0.1006 1.0533 -4.8835
N    -0.7874 0.7340 -1.7837
C    -3.2112 -3.1268 1.7157
C    -2.9742 -1.9864 2.4250
C    -1.9802 -1.1381 1.9459
C    -1.5183 -2.4857 0.2062
C    -2.4490 -3.3964 0.6045
C    0.9863 3.8564 2.7533
C    1.1129 2.5618 3.2337
C    0.6395 1.5599 2.5012
C    -0.0295 2.8974 0.7987
C    0.3899 3.9599 1.5350
X    5.1771 -1.1030 -1.1322
X    -1.6764 2.1504 -4.7295
X    -3.9021 -3.2078 2.0621
X    1.5692 4.1056 3.0029
   0   23 S
   0   24 S
   0   28 S
   0   30 S
   1   32 S
   2   33 S
   3   34 S
   4   35 S
   5   37 S
   6   38 S
   7   39 S
   8   40 S
   9   10 A
   9   13 A
   9   41 S
  10   11 A
  10   19 S
  11   20 S
  11   28 A
  12   13 A
  12   21 S
  12   28 A
  13   22 S
  14   15 A
  14   18 A
  14   42 S
  15   16 A
  15   25 S
  16   26 S
  16   30 A
  17   18 A
  17   27 S
  17   30 A
  18   29 S
  23   33 A
  23   34 A
  24   38 A
  24   39 A
  31   32 A
  31   35 A
  31   43 S
  32   33 A
  34   35 A
  36   37 A
  36   40 A
  36   44 S
  37   38 A
  39   40 A
