146
  134  135  136  137  138  139  140  141  142  143  144  145
Gd   0.0000 0.0000 0.0000
Gd   2.5334 -0.4791 3.1013
H    2.2606 -2.3211 -5.4701
H    2.2840 -0.6554 -3.9290
H    1.3508 -3.3809 -1.0850
H    1.3422 -4.9797 -2.6995
H    6.7155 2.4689 6.2705
H    5.3573 1.0189 5.1645
H    3.4469 4.1409 3.5515
H    4.8071 5.5198 4.7264
H    -4.3783 2.6554 4.1188
H    -3.4957 0.9181 2.9540
H    -0.4626 3.2704 1.8595
H    -1.4202 4.9636 3.0186
H    7.6749 -2.5597 6.7560
H    6.2689 -0.9060 6.1082
H    4.4825 -3.4305 3.5716
H    5.9211 -5.0734 4.2768
H    0.3444 5.9011 -2.8790
H    0.3571 4.6235 -1.0060
H    0.8076 1.3598 -3.3329
H    0.8359 2.7248 -5.1513
H    -0.6671 -5.4347 2.6179
H    0.5837 -3.8710 1.5521
H    -1.3912 -0.9983 3.5328
H    -2.6754 -2.6155 4.5023
H    0.2728 1.8420 8.5715
H    0.2494 0.1764 7.0303
H    1.1826 2.9018 4.1863
H    1.1912 4.5006 5.8008
H    -4.1820 -2.9479 -3.1691
H    -2.8239 -1.4979 -2.0632
H    -0.9134 -4.6200 -0.4501
H    -2.2737 -5.9989 -1.6251
H    6.9117 -3.1345 -1.0175
H    6.0291 -1.3971 0.1474
H    2.9960 -3.7495 1.2419
H    3.9536 -5.4427 0.0827
H    -5.1415 2.0807 -3.6546
H    -3.7354 0.4269 -3.0068
H    -1.9491 2.9514 -0.4703
H    -3.3876 4.5944 -1.1755
H    2.1890 -6.3801 5.9803
H    2.1764 -5.1026 4.1074
H    1.7258 -1.8388 6.4342
H    1.6975 -3.2039 8.2526
H    3.2006 4.9557 0.4835
H    1.9498 3.3920 1.5492
H    3.9246 0.5192 -0.4315
H    5.2088 2.1365 -1.4010
C    2.0474 -2.5163 -4.5854
C    2.0516 -1.5173 -3.6690
C    1.7038 -1.7775 -2.3131
C    1.4942 -3.1413 -1.9727
C    1.5027 -4.0944 -2.9364
C    6.0517 2.8036 5.7117
C    5.2391 1.9344 5.0395
C    4.2372 2.3753 4.1734
C    4.1080 3.7733 4.0944
C    4.9279 4.6003 4.7939
C    -3.5826 2.7774 3.6520
C    -3.0568 1.7368 2.9511
C    -1.8807 1.8771 2.2315
C    -1.2676 3.1269 2.3004
C    -1.8351 4.1316 3.0042
C    7.0252 -2.7375 6.1139
C    6.1786 -1.7516 5.7290
C    5.1706 -1.9620 4.7810
C    5.1141 -3.2384 4.2266
C    5.9893 -4.2224 4.6445
C    0.4340 4.9792 -2.9609
C    0.4298 4.2153 -1.8391
C    0.5354 2.8048 -1.9152
C    0.7040 2.2768 -3.2180
C    0.7191 3.0963 -4.3082
C    -0.8059 -4.5335 2.8003
C    -0.0497 -3.5984 2.1755
C    -0.1973 -2.2298 2.4455
C    -1.2252 -1.8942 3.3389
C    -1.9881 -2.8643 3.9264
C    0.4860 2.0373 7.6867
C    0.4819 1.0383 6.7703
C    0.8297 1.2985 5.4144
C    1.0393 2.6623 5.0740
C    1.0308 3.6153 6.0378
C    -3.5183 -3.2826 -2.6104
C    -2.7057 -2.4135 -1.9382
C    -1.7038 -2.8543 -1.0721
C    -1.5746 -4.2524 -0.9931
C    -2.3945 -5.0793 -1.6926
C    6.1161 -3.2564 -0.5507
C    5.5902 -2.2159 0.1502
C    4.4141 -2.3562 0.8698
C    3.8010 -3.6059 0.8009
C    4.3685 -4.6106 0.0971
C    -4.4918 2.2585 -3.0126
C    -3.6452 1.2726 -2.6276
C    -2.6372 1.4829 -1.6797
C    -2.5807 2.7594 -1.1252
C    -3.4558 3.7434 -1.5432
C    2.0994 -5.4583 6.0622
C    2.1037 -4.6943 4.9404
C    1.9980 -3.2838 5.0166
C    1.8294 -2.7558 6.3193
C    1.8143 -3.5754 7.4095
C    3.3393 4.0544 0.3011
C    2.5832 3.1194 0.9259
C    2.7308 1.7508 0.6558
C    3.7586 1.4152 -0.2376
C    4.5215 2.3853 -0.8250
N    6.9408 -3.9836 5.5739
N    0.5655 4.4346 -4.1947
N    -1.7707 -4.1621 3.6937
N    5.9106 4.1260 5.5810
N    1.7415 -3.7925 -4.2464
N    -2.9861 3.9648 3.6865
N    -4.4073 3.5046 -2.4725
N    1.9679 -4.9137 7.2960
N    4.3041 3.6830 -0.5923
N    -3.3771 -4.6050 -2.4797
N    0.7920 3.3134 7.3477
N    5.5195 -4.4438 -0.5852
O    4.3655 -1.0176 4.4751
O    0.4853 2.0816 -0.8767
O    0.5946 -1.3221 1.9155
O    3.5001 1.5804 3.4912
O    -1.3751 0.9068 1.5521
O    1.5681 -0.8120 -1.4728
O    -1.8320 0.5385 -1.3737
O    2.0481 -2.5606 3.9781
O    1.9388 0.8430 1.1858
O    -0.9667 -2.0594 -0.3898
O    3.9085 -1.3859 1.5492
O    0.9653 0.3329 4.5742
X    7.3731 -4.4375 5.9364
X    0.4228 4.5462 -4.7939
X    -2.0716 -4.4600 4.2961
X    6.5178 4.7628 5.4328
X    1.4569 -4.6024 -4.2530
X    -3.0921 4.7781 3.6640
X    -4.8397 3.9585 -2.8350
X    2.1106 -5.0253 7.8953
X    4.6051 3.9809 -1.1947
X    -3.9844 -5.2418 -2.3315
X    1.0766 4.1233 7.3543
X    5.6256 -5.2571 -0.5626
   0  123 S
   0  124 S
   0  126 S
   0  127 S
   0  128 S
   0  130 S
   0  131 S
   1  122 S
   1  124 S
   1  125 S
   1  129 S
   1  130 S
   1  132 S
   1  133 S
   2   50 S
   3   51 S
   4   53 S
   5   54 S
   6   55 S
   7   56 S
   8   58 S
   9   59 S
  10   60 S
  11   61 S
  12   63 S
  13   64 S
  14   65 S
  15   66 S
  16   68 S
  17   69 S
  18   70 S
  19   71 S
  20   73 S
  21   74 S
  22   75 S
  23   76 S
  24   78 S
  25   79 S
  26   80 S
  27   81 S
  28   83 S
  29   84 S
  30   85 S
  31   86 S
  32   88 S
  33   89 S
  34   90 S
  35   91 S
  36   93 S
  37   94 S
  38   95 S
  39   96 S
  40   98 S
  41   99 S
  42  100 S
  43  101 S
  44  103 S
  45  104 S
  46  105 S
  47  106 S
  48  108 S
  49  109 S
  50   51 A
  50  114 A
  51   52 A
  52   53 A
  52  127 S
  53   54 A
  54  114 A
  55   56 A
  55  113 A
  56   57 A
  57   58 A
  57  125 S
  58   59 A
  59  113 A
  60   61 A
  60  115 A
  61   62 A
  62   63 A
  62  126 S
  63   64 A
  64  115 A
  65   14 S
  65   66 A
  65  110 A
  66   67 A
  67   68 A
  67  122 S
  68   69 A
  69  110 A
  70   71 A
  70  111 A
  71   72 A
  72   73 A
  72  123 S
  73   74 A
  74  111 A
  75   76 A
  75  112 A
  76   77 A
  77   78 A
  77  124 S
  78   79 A
  79  112 A
  80   81 A
  80  120 A
  81   82 A
  82   83 A
  82  133 S
  83   84 A
  84  120 A
  85   86 A
  85  119 A
  86   87 A
  87   88 A
  87  131 S
  88   89 A
  89  119 A
  90   91 A
  90  121 A
  91   92 A
  92   93 A
  92  132 S
  93   94 A
  94  121 A
  95   38 S
  95   96 A
  95  116 A
  96   97 A
  97   98 A
  97  128 S
  98   99 A
  99  116 A
 100  101 A
 100  117 A
 101  102 A
 102  103 A
 102  129 S
 103  104 A
 104  117 A
 105  106 A
 105  118 A
 106  107 A
 107  108 A
 107  130 S
 108  109 A
 109  118 A
 110  134 S
 111  135 S
 112  136 S
 113  137 S
 114  138 S
 115  139 S
 116  140 S
 117  141 S
 118  142 S
 119  143 S
 120  144 S
 121  145 S
