108
  100  101  102  103  104  105  106  107
Cu   0.0000 0.0000 0.0000
Cu   -0.4774 -1.0494 2.7699
Cu   -3.0287 0.2273 3.2492
Cu   -2.8490 -2.6179 2.8885
Cu   -1.9564 -1.3766 4.9870
Cu   1.8790 -1.6205 -0.8822
Cu   2.3564 -0.5712 -3.6521
Cu   4.9078 -1.8478 -4.1315
Cu   4.7280 0.9974 -3.7708
Cu   3.8354 -0.2439 -5.8692
H    0.6617 2.3004 1.8293
H    2.1039 4.0538 1.7939
H    2.1489 3.7961 -2.1982
H    0.6857 2.0468 -2.0568
H    -5.8101 2.5970 -0.0418
H    -4.8577 0.8215 1.0712
H    -3.5143 3.1850 3.8326
H    -4.4180 4.9990 2.8060
H    4.2945 -2.0812 -8.0890
H    4.6352 -2.1321 -10.3305
H    3.8786 1.8003 -10.4065
H    3.5323 1.6983 -8.1387
H    -6.4472 -4.2721 -0.0640
H    -4.9945 -2.8020 0.9114
H    -3.2959 -5.6268 2.9055
H    -4.7402 -7.1655 2.0925
H    1.2173 -3.9209 -2.7115
H    -0.2248 -5.6744 -2.6762
H    -0.2699 -5.4166 1.3160
H    1.1933 -3.6674 1.1746
H    7.6891 -4.2175 -0.8405
H    6.7367 -2.4420 -1.9534
H    5.3933 -4.8055 -4.7148
H    6.2970 -6.6195 -3.6883
H    -2.4155 0.4607 7.2067
H    -2.7561 0.5116 9.4483
H    -1.9996 -3.4208 9.5242
H    -1.6533 -3.3188 7.2565
H    8.3262 2.6516 -0.8182
H    6.8736 1.1815 -1.7937
H    5.1749 4.0062 -3.7878
H    6.6192 5.5450 -2.9747
C    0.9803 2.5961 1.0070
C    1.8401 3.6543 0.9965
C    2.3247 4.1318 -0.2355
C    1.8663 3.5033 -1.3616
C    0.9920 2.4413 -1.2725
C    -5.1874 4.0293 1.2217
C    -5.3278 2.7485 0.7386
C    -4.7511 1.6801 1.4116
C    -3.9643 3.0652 3.0273
C    -4.5075 4.1605 2.4145
C    4.2030 -1.2866 -8.5642
C    4.4081 -1.3317 -9.9129
C    4.2729 -0.1670 -10.6435
C    3.9580 0.9900 -9.9574
C    3.7626 0.9180 -8.5904
C    -5.7765 -5.9147 0.9075
C    -5.8248 -4.5774 0.5579
C    -4.9373 -3.7013 1.1432
C    -3.9557 -5.3400 2.3150
C    -4.8093 -6.2805 1.8175
C    0.8987 -4.2166 -1.8892
C    0.0390 -5.2748 -1.8788
C    -0.4456 -5.7523 -0.6467
C    0.0127 -5.1238 0.4793
C    0.8870 -4.0618 0.3903
C    7.0665 -5.6498 -2.1040
C    7.2068 -4.3690 -1.6208
C    6.6301 -3.3006 -2.2938
C    5.8433 -4.6857 -3.9095
C    6.3866 -5.7810 -3.2968
C    -2.3240 -0.3339 7.6820
C    -2.5290 -0.2888 9.0306
C    -2.3939 -1.4535 9.7612
C    -2.0790 -2.6105 9.0751
C    -1.8836 -2.5385 7.7082
C    7.6555 4.2942 -1.7897
C    7.7039 2.9569 -1.4401
C    6.8163 2.0808 -2.0254
C    5.8348 3.7194 -3.1973
C    6.6884 4.6600 -2.6997
I    -2.3006 -0.9653 0.7505
I    1.9255 -0.8369 1.7138
I    -0.8215 1.0432 4.4241
I    -0.6568 -3.4826 4.0464
I    -4.6487 -1.3951 4.4567
I    4.1796 -0.6552 -1.6327
I    -0.0465 -0.7837 -2.5960
I    2.7006 -2.6637 -5.3063
I    2.5358 1.8621 -4.9286
I    6.5277 -0.2254 -5.3390
N    0.5669 1.9558 -0.0941
N    -4.0487 1.8460 2.5311
N    3.8838 -0.2039 -7.8821
N    -3.9989 -4.0649 2.0231
N    1.3121 -3.5763 -0.7881
N    5.9277 -3.4665 -3.4133
N    -2.0047 -1.4167 6.9998
N    5.8780 2.4444 -2.9053
X    2.9519 4.4172 -0.6578
X    -5.3857 4.4493 0.6577
X    4.1342 -0.5649 -11.1288
X    -6.4474 -6.3759 1.0631
X    -1.0729 -6.0377 -0.2244
X    7.2647 -6.0699 -1.5399
X    -2.2552 -1.0557 10.2466
X    8.3264 4.7554 -1.9453
   0    1 S
   0    5 S
   0   82 S
   0   83 S
   0   88 S
   0   92 S
   1    2 S
   1    3 S
   1    4 S
   1   82 S
   1   83 S
   1   84 S
   1   85 S
   2    3 S
   2    4 S
   2   82 S
   2   84 S
   2   86 S
   2   93 S
   3    4 S
   3   82 S
   3   85 S
   3   86 S
   3   95 S
   4   84 S
   4   85 S
   4   86 S
   4   98 S
   5    6 S
   5   83 S
   5   87 S
   5   88 S
   5   96 S
   6    7 S
   6    8 S
   6    9 S
   6   87 S
   6   88 S
   6   89 S
   6   90 S
   7    8 S
   7    9 S
   7   87 S
   7   89 S
   7   91 S
   7   97 S
   8    9 S
   8   87 S
   8   90 S
   8   91 S
   8   99 S
   9   89 S
   9   90 S
   9   91 S
   9   94 S
  10   42 S
  11   43 S
  12   45 S
  13   46 S
  14   48 S
  15   49 S
  16   50 S
  17   51 S
  18   52 S
  19   53 S
  20   55 S
  21   56 S
  22   58 S
  23   59 S
  24   60 S
  25   61 S
  26   62 S
  27   63 S
  28   65 S
  29   66 S
  30   68 S
  31   69 S
  32   70 S
  33   71 S
  34   72 S
  35   73 S
  36   75 S
  37   76 S
  38   78 S
  39   79 S
  40   80 S
  41   81 S
  42   43 A
  42   92 A
  43   44 A
  44   45 A
  44  100 S
  45   46 A
  46   92 A
  47   48 A
  47   51 A
  47  101 S
  48   14 S
  48   49 A
  49   93 A
  50   51 A
  50   93 A
  51   17 S
  52   53 A
  52   94 A
  53   19 S
  53   54 A
  54   55 A
  54  102 S
  55   56 A
  56   94 A
  57   58 A
  57   61 A
  57  103 S
  58   59 A
  59   95 A
  60   24 S
  60   61 A
  60   95 A
  62   63 A
  62   96 A
  63   64 A
  64   65 A
  64  104 S
  65   66 A
  66   96 A
  67   68 A
  67   71 A
  67  105 S
  68   30 S
  68   69 A
  69   97 A
  70   71 A
  70   97 A
  71   33 S
  72   73 A
  72   98 A
  73   35 S
  73   74 A
  74   75 A
  74  106 S
  75   76 A
  76   98 A
  77   78 A
  77   81 A
  77  107 S
  78   79 A
  79   99 A
  80   40 S
  80   81 A
  80   99 A
  94    9 S
  95    3 S
  98    4 S
  99    8 S
